3245059
  -OEChem-06081017553D

 29 31  0     0  0  0  0  0  0999 V2000
   -7.2056    0.0757   -0.3569 Br  0  0  0  0  0  0  0  0  0  0  0  0
    0.7150   -0.4908   -1.0654 S   0  0  0  0  0  0  0  0  0  0  0  0
   -1.9507   -0.3888   -1.4165 N   0  0  0  0  0  0  0  0  0  0  0  0
   -1.3283   -0.1174    0.7047 N   0  0  0  0  0  0  0  0  0  0  0  0
   -3.5550    0.1501    1.6340 N   0  0  0  0  0  0  0  0  0  0  0  0
    2.8409    3.0568   -0.1507 N   0  0  0  0  0  0  0  0  0  0  0  0
   -3.1110   -0.2173   -0.7118 C   0  0  0  0  0  0  0  0  0  0  0  0
    1.6316   -0.3129    0.4933 C   0  0  0  0  0  0  0  0  0  0  0  0
   -0.9127   -0.3213   -0.5264 C   0  0  0  0  0  0  0  0  0  0  0  0
   -2.6952   -0.0507    0.6044 C   0  0  0  0  0  0  0  0  0  0  0  0
    3.1179   -0.4248    0.2935 C   0  0  0  0  0  0  0  0  0  0  0  0
   -4.4546   -0.1894   -1.0687 C   0  0  0  0  0  0  0  0  0  0  0  0
    3.8949    0.6965    0.0248 C   0  0  0  0  0  0  0  0  0  0  0  0
    3.7000   -1.6847    0.3840 C   0  0  0  0  0  0  0  0  0  0  0  0
   -5.3496    0.0160   -0.0220 C   0  0  0  0  0  0  0  0  0  0  0  0
    5.2709    0.5565   -0.1556 C   0  0  0  0  0  0  0  0  0  0  0  0
    5.0761   -1.8246    0.2038 C   0  0  0  0  0  0  0  0  0  0  0  0
   -4.8587    0.1746    1.2697 C   0  0  0  0  0  0  0  0  0  0  0  0
    5.8614   -0.7041   -0.0660 C   0  0  0  0  0  0  0  0  0  0  0  0
    3.3127    2.0004   -0.0723 C   0  0  0  0  0  0  0  0  0  0  0  0
    1.2989   -1.0976    1.1846 H   0  0  0  0  0  0  0  0  0  0  0  0
    1.3673    0.6334    0.9783 H   0  0  0  0  0  0  0  0  0  0  0  0
   -1.8713   -0.5378   -2.4136 H   0  0  0  0  0  0  0  0  0  0  0  0
   -4.7728   -0.3202   -2.0963 H   0  0  0  0  0  0  0  0  0  0  0  0
    3.1007   -2.5670    0.5920 H   0  0  0  0  0  0  0  0  0  0  0  0
    5.8979    1.4197   -0.3668 H   0  0  0  0  0  0  0  0  0  0  0  0
   -5.5386    0.3359    2.1032 H   0  0  0  0  0  0  0  0  0  0  0  0
    5.5360   -2.8060    0.2730 H   0  0  0  0  0  0  0  0  0  0  0  0
    6.9329   -0.8131   -0.2066 H   0  0  0  0  0  0  0  0  0  0  0  0
  1 15  1  0  0  0  0
  2  8  1  0  0  0  0
  2  9  1  0  0  0  0
  3  7  1  0  0  0  0
  3  9  1  0  0  0  0
  3 23  1  0  0  0  0
  4  9  2  0  0  0  0
  4 10  1  0  0  0  0
  5 10  1  0  0  0  0
  5 18  2  0  0  0  0
  6 20  3  0  0  0  0
  7 10  2  0  0  0  0
  7 12  1  0  0  0  0
  8 11  1  0  0  0  0
  8 21  1  0  0  0  0
  8 22  1  0  0  0  0
 11 13  1  0  0  0  0
 11 14  2  0  0  0  0
 12 15  2  0  0  0  0
 12 24  1  0  0  0  0
 13 16  2  0  0  0  0
 13 20  1  0  0  0  0
 14 17  1  0  0  0  0
 14 25  1  0  0  0  0
 15 18  1  0  0  0  0
 16 19  1  0  0  0  0
 16 26  1  0  0  0  0
 17 19  2  0  0  0  0
 17 28  1  0  0  0  0
 18 27  1  0  0  0  0
 19 29  1  0  0  0  0
M  END
> <PUBCHEM_COMPOUND_CID>
3245059

> <PUBCHEM_CONFORMER_RMSD>
0.6

> <PUBCHEM_MMFF94_PARTIAL_CHARGES>
27
1 -0.11
10 0.48
11 -0.14
12 -0.15
13 0.07
14 -0.15
15 0.11
16 -0.15
17 -0.15
18 0.16
19 -0.15
2 -0.29
20 0.48
23 0.27
24 0.15
25 0.15
26 0.15
27 0.15
28 0.15
29 0.15
3 0.03
4 -0.57
5 -0.57
6 -0.56
7 -0.15
8 0.37
9 0.24

> <PUBCHEM_EFFECTIVE_ROTOR_COUNT>
3

> <PUBCHEM_PHARMACOPHORE_FEATURES>
8
1 1 hydrophobe
1 3 donor
1 5 acceptor
1 6 acceptor
3 3 4 9 cation
5 3 4 7 9 10 rings
6 11 13 14 16 17 19 rings
6 5 7 10 12 15 18 rings

> <PUBCHEM_HEAVY_ATOM_COUNT>
20

> <PUBCHEM_ATOM_DEF_STEREO_COUNT>
0

> <PUBCHEM_ATOM_UDEF_STEREO_COUNT>
0

> <PUBCHEM_BOND_DEF_STEREO_COUNT>
0

> <PUBCHEM_BOND_UDEF_STEREO_COUNT>
0

> <PUBCHEM_ISOTOPIC_ATOM_COUNT>
0

> <PUBCHEM_COMPONENT_COUNT>
1

> <PUBCHEM_CACTVS_TAUTO_COUNT>
3

> <PUBCHEM_CONFORMER_ID>
0031840300000002

> <PUBCHEM_MMFF94_ENERGY>
36.3831

> <PUBCHEM_FEATURE_SELFOVERLAP>
-8.025

> <PUBCHEM_SHAPE_MULTIPOLES>
401.46
16.88
1.61
1.12
8.46
-0.05
-0.5
0.59
-1.24
-0.2
-0.92
-1.95
16.49
-3.45

> <PUBCHEM_SHAPE_SELFOVERLAP>
853.35

> <PUBCHEM_SHAPE_VOLUME>
229.4

> <PUBCHEM_COORDINATE_TYPE>
2
5
255

$$$$
2331284
  -OEChem-06081017553D

 45 48  0     0  0  0  0  0  0999 V2000
   -2.6610    0.2505    0.2379 N   0  0  0  0  0  0  0  0  0  0  0  0
    1.9129    0.4580    0.2265 N   0  0  0  0  0  0  0  0  0  0  0  0
   -3.4817    1.5612   -1.3033 N   0  0  0  0  0  0  0  0  0  0  0  0
   -2.1300    1.8130   -1.1919 N   0  0  0  0  0  0  0  0  0  0  0  0
   -2.5534   -0.7530    1.2714 C   0  0  0  0  0  0  0  0  0  0  0  0
   -2.9834   -2.1418    0.8063 C   0  0  0  0  0  0  0  0  0  0  0  0
   -4.4991   -2.3108    0.6757 C   0  0  0  0  0  0  0  0  0  0  0  0
   -5.1478   -1.4912   -0.4433 C   0  0  0  0  0  0  0  0  0  0  0  0
   -5.1293    0.0170   -0.2011 C   0  0  0  0  0  0  0  0  0  0  0  0
   -3.7922    0.6167   -0.4371 C   0  0  0  0  0  0  0  0  0  0  0  0
   -1.6546    1.0161   -0.2623 C   0  0  0  0  0  0  0  0  0  0  0  0
   -0.2361    0.9903    0.1424 C   0  0  0  0  0  0  0  0  0  0  0  0
    0.7329    0.1931   -0.4181 C   0  0  0  0  0  0  0  0  0  0  0  0
    0.3747    1.7618    1.1571 C   0  0  0  0  0  0  0  0  0  0  0  0
    1.7067    1.4127    1.1880 C   0  0  0  0  0  0  0  0  0  0  0  0
    0.6351   -0.7998   -1.5134 C   0  0  0  0  0  0  0  0  0  0  0  0
    3.1404   -0.1504   -0.0544 C   0  0  0  0  0  0  0  0  0  0  0  0
    2.7891    1.9193    2.0597 C   0  0  0  0  0  0  0  0  0  0  0  0
    3.4945   -1.3122    0.6156 C   0  0  0  0  0  0  0  0  0  0  0  0
    3.9827    0.4176   -0.9987 C   0  0  0  0  0  0  0  0  0  0  0  0
    4.7185   -1.9196    0.3349 C   0  0  0  0  0  0  0  0  0  0  0  0
    5.2066   -0.1899   -1.2796 C   0  0  0  0  0  0  0  0  0  0  0  0
    5.5744   -1.3585   -0.6126 C   0  0  0  0  0  0  0  0  0  0  0  0
   -3.1557   -0.4117    2.1212 H   0  0  0  0  0  0  0  0  0  0  0  0
   -1.5141   -0.7988    1.6108 H   0  0  0  0  0  0  0  0  0  0  0  0
   -2.6310   -2.8712    1.5463 H   0  0  0  0  0  0  0  0  0  0  0  0
   -2.4970   -2.3953   -0.1438 H   0  0  0  0  0  0  0  0  0  0  0  0
   -4.9814   -2.0772    1.6329 H   0  0  0  0  0  0  0  0  0  0  0  0
   -4.7035   -3.3707    0.4786 H   0  0  0  0  0  0  0  0  0  0  0  0
   -6.1958   -1.8078   -0.5187 H   0  0  0  0  0  0  0  0  0  0  0  0
   -4.6768   -1.7347   -1.4039 H   0  0  0  0  0  0  0  0  0  0  0  0
   -5.4718    0.2501    0.8139 H   0  0  0  0  0  0  0  0  0  0  0  0
   -5.8432    0.4882   -0.8880 H   0  0  0  0  0  0  0  0  0  0  0  0
   -0.1001    2.4929    1.7977 H   0  0  0  0  0  0  0  0  0  0  0  0
    1.2865   -0.5263   -2.3497 H   0  0  0  0  0  0  0  0  0  0  0  0
    0.9164   -1.7980   -1.1622 H   0  0  0  0  0  0  0  0  0  0  0  0
   -0.3841   -0.8705   -1.9062 H   0  0  0  0  0  0  0  0  0  0  0  0
    3.5840    2.3869    1.4699 H   0  0  0  0  0  0  0  0  0  0  0  0
    2.4078    2.6752    2.7547 H   0  0  0  0  0  0  0  0  0  0  0  0
    3.2234    1.1123    2.6585 H   0  0  0  0  0  0  0  0  0  0  0  0
    2.8360   -1.7592    1.3557 H   0  0  0  0  0  0  0  0  0  0  0  0
    3.7072    1.3277   -1.5250 H   0  0  0  0  0  0  0  0  0  0  0  0
    5.0049   -2.8296    0.8541 H   0  0  0  0  0  0  0  0  0  0  0  0
    5.8732    0.2469   -2.0174 H   0  0  0  0  0  0  0  0  0  0  0  0
    6.5273   -1.8314   -0.8312 H   0  0  0  0  0  0  0  0  0  0  0  0
  1  5  1  0  0  0  0
  1 10  1  0  0  0  0
  1 11  1  0  0  0  0
  2 13  1  0  0  0  0
  2 15  1  0  0  0  0
  2 17  1  0  0  0  0
  3  4  1  0  0  0  0
  3 10  2  0  0  0  0
  4 11  2  0  0  0  0
  5  6  1  0  0  0  0
  5 24  1  0  0  0  0
  5 25  1  0  0  0  0
  6  7  1  0  0  0  0
  6 26  1  0  0  0  0
  6 27  1  0  0  0  0
  7  8  1  0  0  0  0
  7 28  1  0  0  0  0
  7 29  1  0  0  0  0
  8  9  1  0  0  0  0
  8 30  1  0  0  0  0
  8 31  1  0  0  0  0
  9 10  1  0  0  0  0
  9 32  1  0  0  0  0
  9 33  1  0  0  0  0
 11 12  1  0  0  0  0
 12 13  2  0  0  0  0
 12 14  1  0  0  0  0
 13 16  1  0  0  0  0
 14 15  2  0  0  0  0
 14 34  1  0  0  0  0
 15 18  1  0  0  0  0
 16 35  1  0  0  0  0
 16 36  1  0  0  0  0
 16 37  1  0  0  0  0
 17 19  2  0  0  0  0
 17 20  1  0  0  0  0
 18 38  1  0  0  0  0
 18 39  1  0  0  0  0
 18 40  1  0  0  0  0
 19 21  1  0  0  0  0
 19 41  1  0  0  0  0
 20 22  2  0  0  0  0
 20 42  1  0  0  0  0
 21 23  2  0  0  0  0
 21 43  1  0  0  0  0
 22 23  1  0  0  0  0
 22 44  1  0  0  0  0
 23 45  1  0  0  0  0
M  END
> <PUBCHEM_COMPOUND_CID>
2331284

> <PUBCHEM_CONFORMER_RMSD>
0.6

> <PUBCHEM_MMFF94_PARTIAL_CHARGES>
25
1 0.05
10 0.01
11 0.19
13 -0.33
14 -0.15
15 -0.33
16 0.18
17 -0.02
18 0.18
19 -0.15
2 0.33
20 -0.15
21 -0.15
22 -0.15
23 -0.15
3 -0.34
34 0.15
4 -0.34
41 0.15
42 0.15
43 0.15
44 0.15
45 0.15
5 0.26
9 0.18

> <PUBCHEM_EFFECTIVE_ROTOR_COUNT>
3

> <PUBCHEM_PHARMACOPHORE_FEATURES>
7
1 2 cation
3 1 3 10 cation
3 1 4 11 cation
5 1 3 4 10 11 rings
5 2 12 13 14 15 rings
6 17 19 20 21 22 23 rings
7 1 5 6 7 8 9 10 rings

> <PUBCHEM_HEAVY_ATOM_COUNT>
23

> <PUBCHEM_ATOM_DEF_STEREO_COUNT>
0

> <PUBCHEM_ATOM_UDEF_STEREO_COUNT>
0

> <PUBCHEM_BOND_DEF_STEREO_COUNT>
0

> <PUBCHEM_BOND_UDEF_STEREO_COUNT>
0

> <PUBCHEM_ISOTOPIC_ATOM_COUNT>
0

> <PUBCHEM_COMPONENT_COUNT>
1

> <PUBCHEM_CACTVS_TAUTO_COUNT>
1

> <PUBCHEM_CONFORMER_ID>
0023929400000002

> <PUBCHEM_MMFF94_ENERGY>
60.0672

> <PUBCHEM_FEATURE_SELFOVERLAP>
-7.497

> <PUBCHEM_SHAPE_MULTIPOLES>
453.41
12.24
2.26
1.44
0.67
6.65
1.07
-1.95
1.04
-5.36
4.99
6.35
1.68
15.88

> <PUBCHEM_SHAPE_SELFOVERLAP>
990.235

> <PUBCHEM_SHAPE_VOLUME>
244.3

> <PUBCHEM_COORDINATE_TYPE>
2
5
255

$$$$
729956
  -OEChem-06081017553D

 32 34  0     0  0  0  0  0  0999 V2000
    3.1832    2.3886   -0.4797 Cl  0  0  0  0  0  0  0  0  0  0  0  0
    0.6277   -0.3991   -1.1246 S   0  0  0  0  0  0  0  0  0  0  0  0
   -2.9752    2.5221    0.6056 O   0  0  0  0  0  0  0  0  0  0  0  0
   -1.9043   -1.1129   -0.6888 N   0  0  0  0  0  0  0  0  0  0  0  0
   -1.3093    1.1377   -0.2035 N   0  0  0  0  0  0  0  0  0  0  0  0
   -5.3695   -1.1707    0.5146 C   0  0  0  0  0  0  0  0  0  0  0  0
   -4.2861   -1.8872   -0.3080 C   0  0  0  0  0  0  0  0  0  0  0  0
   -5.0271    0.3277    0.5016 C   0  0  0  0  0  0  0  0  0  0  0  0
   -3.1877   -0.8883   -0.3021 C   0  0  0  0  0  0  0  0  0  0  0  0
   -3.5912    0.3058    0.1349 C   0  0  0  0  0  0  0  0  0  0  0  0
   -2.6125    1.4204    0.2038 C   0  0  0  0  0  0  0  0  0  0  0  0
   -1.0179   -0.0654   -0.6162 C   0  0  0  0  0  0  0  0  0  0  0  0
    1.4774   -0.0165    0.4194 C   0  0  0  0  0  0  0  0  0  0  0  0
    2.9648   -0.2101    0.3117 C   0  0  0  0  0  0  0  0  0  0  0  0
    3.8014    0.8257   -0.0872 C   0  0  0  0  0  0  0  0  0  0  0  0
    3.4848   -1.4616    0.6234 C   0  0  0  0  0  0  0  0  0  0  0  0
    5.1764    0.6078   -0.1756 C   0  0  0  0  0  0  0  0  0  0  0  0
    4.8597   -1.6794    0.5350 C   0  0  0  0  0  0  0  0  0  0  0  0
    5.7054   -0.6448    0.1354 C   0  0  0  0  0  0  0  0  0  0  0  0
   -5.3500   -1.5419    1.5480 H   0  0  0  0  0  0  0  0  0  0  0  0
   -6.3740   -1.3639    0.1236 H   0  0  0  0  0  0  0  0  0  0  0  0
   -4.6279   -2.0814   -1.3299 H   0  0  0  0  0  0  0  0  0  0  0  0
   -3.9989   -2.8331    0.1608 H   0  0  0  0  0  0  0  0  0  0  0  0
   -5.2062    0.7810    1.4808 H   0  0  0  0  0  0  0  0  0  0  0  0
   -5.6117    0.8611   -0.2550 H   0  0  0  0  0  0  0  0  0  0  0  0
   -1.6403   -2.0348   -1.0145 H   0  0  0  0  0  0  0  0  0  0  0  0
    1.0819   -0.6773    1.2014 H   0  0  0  0  0  0  0  0  0  0  0  0
    1.2338    0.9958    0.7577 H   0  0  0  0  0  0  0  0  0  0  0  0
    2.8384   -2.2778    0.9347 H   0  0  0  0  0  0  0  0  0  0  0  0
    5.8491    1.4036   -0.4853 H   0  0  0  0  0  0  0  0  0  0  0  0
    5.2718   -2.6547    0.7768 H   0  0  0  0  0  0  0  0  0  0  0  0
    6.7759   -0.8146    0.0666 H   0  0  0  0  0  0  0  0  0  0  0  0
  1 15  1  0  0  0  0
  2 12  1  0  0  0  0
  2 13  1  0  0  0  0
  3 11  2  0  0  0  0
  4  9  1  0  0  0  0
  4 12  1  0  0  0  0
  4 26  1  0  0  0  0
  5 11  1  0  0  0  0
  5 12  2  0  0  0  0
  6  7  1  0  0  0  0
  6  8  1  0  0  0  0
  6 20  1  0  0  0  0
  6 21  1  0  0  0  0
  7  9  1  0  0  0  0
  7 22  1  0  0  0  0
  7 23  1  0  0  0  0
  8 10  1  0  0  0  0
  8 24  1  0  0  0  0
  8 25  1  0  0  0  0
  9 10  2  0  0  0  0
 10 11  1  0  0  0  0
 13 14  1  0  0  0  0
 13 27  1  0  0  0  0
 13 28  1  0  0  0  0
 14 15  1  0  0  0  0
 14 16  2  0  0  0  0
 15 17  2  0  0  0  0
 16 18  1  0  0  0  0
 16 29  1  0  0  0  0
 17 19  1  0  0  0  0
 17 30  1  0  0  0  0
 18 19  2  0  0  0  0
 18 31  1  0  0  0  0
 19 32  1  0  0  0  0
M  END
> <PUBCHEM_COMPOUND_CID>
729956

> <PUBCHEM_CONFORMER_RMSD>
0.6

> <PUBCHEM_MMFF94_PARTIAL_CHARGES>
23
1 -0.18
10 -0.12
11 0.77
12 0.64
13 0.37
14 -0.14
15 0.18
16 -0.15
17 -0.15
18 -0.15
19 -0.15
2 -0.37
26 0.4
29 0.15
3 -0.57
30 0.15
31 0.15
32 0.15
4 -0.55
5 -0.66
7 0.14
8 0.14
9 -0.04

> <PUBCHEM_EFFECTIVE_ROTOR_COUNT>
3.6

> <PUBCHEM_PHARMACOPHORE_FEATURES>
6
1 3 acceptor
1 4 donor
1 5 donor
5 6 7 8 9 10 rings
6 14 15 16 17 18 19 rings
6 4 5 9 10 11 12 rings

> <PUBCHEM_HEAVY_ATOM_COUNT>
19

> <PUBCHEM_ATOM_DEF_STEREO_COUNT>
0

> <PUBCHEM_ATOM_UDEF_STEREO_COUNT>
0

> <PUBCHEM_BOND_DEF_STEREO_COUNT>
0

> <PUBCHEM_BOND_UDEF_STEREO_COUNT>
0

> <PUBCHEM_ISOTOPIC_ATOM_COUNT>
0

> <PUBCHEM_COMPONENT_COUNT>
1

> <PUBCHEM_CACTVS_TAUTO_COUNT>
3

> <PUBCHEM_CONFORMER_ID>
000B236400000003

> <PUBCHEM_MMFF94_ENERGY>
45.2603

> <PUBCHEM_FEATURE_SELFOVERLAP>
-6.023

> <PUBCHEM_SHAPE_MULTIPOLES>
380.9
13.88
2.08
0.86
1.95
-2.59
2.21
-3.54
-1.34
1.4
3.94
-4.01
1.45
-8.53

> <PUBCHEM_SHAPE_SELFOVERLAP>
803.144

> <PUBCHEM_SHAPE_VOLUME>
216.2

> <PUBCHEM_COORDINATE_TYPE>
2
5
255

$$$$
3227698
  -OEChem-06081017553D

 46 48  0     0  0  0  0  0  0999 V2000
    1.1842    4.4091   -1.1150 O   0  0  0  0  0  0  0  0  0  0  0  0
    3.7958   -2.6094    0.8246 O   0  0  0  0  0  0  0  0  0  0  0  0
    3.8431    0.4481    1.1409 O   0  0  0  0  0  0  0  0  0  0  0  0
   -1.5969    1.3705    0.7836 N   0  0  0  0  0  0  0  0  0  0  0  0
   -2.2262    2.5819    0.4321 N   0  0  0  0  0  0  0  0  0  0  0  0
   -1.2902    3.4505   -0.1073 N   0  0  0  0  0  0  0  0  0  0  0  0
    0.7609    0.7373    0.5182 N   0  0  0  0  0  0  0  0  0  0  0  0
    2.1843    2.4082   -0.5032 N   0  0  0  0  0  0  0  0  0  0  0  0
    3.3447   -0.4225   -0.9791 N   0  0  0  0  0  0  0  0  0  0  0  0
   -2.2513    0.3302    1.5228 C   0  0  0  0  0  0  0  0  0  0  0  0
   -2.7508   -0.7420    0.5947 C   0  0  0  0  0  0  0  0  0  0  0  0
   -0.2885    1.4729    0.4423 C   0  0  0  0  0  0  0  0  0  0  0  0
   -4.0282   -0.6687    0.0521 C   0  0  0  0  0  0  0  0  0  0  0  0
   -1.9111   -1.8078    0.2924 C   0  0  0  0  0  0  0  0  0  0  0  0
   -0.1684    2.8115   -0.1366 C   0  0  0  0  0  0  0  0  0  0  0  0
   -2.3552   -2.8143   -0.5650 C   0  0  0  0  0  0  0  0  0  0  0  0
   -4.4724   -1.6756   -0.8051 C   0  0  0  0  0  0  0  0  0  0  0  0
   -3.6360   -2.7483   -1.1138 C   0  0  0  0  0  0  0  0  0  0  0  0
   -4.9423    0.4690    0.3688 C   0  0  0  0  0  0  0  0  0  0  0  0
    1.1337    3.2867   -0.6329 C   0  0  0  0  0  0  0  0  0  0  0  0
    1.9617    1.2415    0.0364 C   0  0  0  0  0  0  0  0  0  0  0  0
   -1.4606   -3.9608   -0.8956 C   0  0  0  0  0  0  0  0  0  0  0  0
    3.1684    0.3690    0.1294 C   0  0  0  0  0  0  0  0  0  0  0  0
    4.4465   -1.3479   -1.1102 C   0  0  0  0  0  0  0  0  0  0  0  0
    4.0923   -2.7180   -0.5616 C   0  0  0  0  0  0  0  0  0  0  0  0
    3.4623   -3.8712    1.3868 C   0  0  0  0  0  0  0  0  0  0  0  0
   -1.5462   -0.1113    2.2403 H   0  0  0  0  0  0  0  0  0  0  0  0
   -3.0508    0.7331    2.1540 H   0  0  0  0  0  0  0  0  0  0  0  0
   -0.9134   -1.8622    0.7208 H   0  0  0  0  0  0  0  0  0  0  0  0
   -2.6392    3.0145    1.2575 H   0  0  0  0  0  0  0  0  0  0  0  0
   -5.4671   -1.6398   -1.2416 H   0  0  0  0  0  0  0  0  0  0  0  0
   -3.9940   -3.5273   -1.7818 H   0  0  0  0  0  0  0  0  0  0  0  0
   -4.5647    1.4057   -0.0466 H   0  0  0  0  0  0  0  0  0  0  0  0
   -5.0987    0.5690    1.4471 H   0  0  0  0  0  0  0  0  0  0  0  0
   -5.9352    0.3114   -0.0689 H   0  0  0  0  0  0  0  0  0  0  0  0
   -0.4087   -3.6551   -0.8897 H   0  0  0  0  0  0  0  0  0  0  0  0
   -1.6739   -4.3539   -1.8955 H   0  0  0  0  0  0  0  0  0  0  0  0
   -1.5962   -4.7655   -0.1663 H   0  0  0  0  0  0  0  0  0  0  0  0
    5.3072   -0.9373   -0.5707 H   0  0  0  0  0  0  0  0  0  0  0  0
    4.6966   -1.4142   -2.1734 H   0  0  0  0  0  0  0  0  0  0  0  0
    2.6749   -0.3692   -1.7411 H   0  0  0  0  0  0  0  0  0  0  0  0
    4.9383   -3.3997   -0.7045 H   0  0  0  0  0  0  0  0  0  0  0  0
    3.2195   -3.1207   -1.0895 H   0  0  0  0  0  0  0  0  0  0  0  0
    2.5714   -4.2830    0.9027 H   0  0  0  0  0  0  0  0  0  0  0  0
    4.3006   -4.5680    1.2909 H   0  0  0  0  0  0  0  0  0  0  0  0
    3.2470   -3.7283    2.4491 H   0  0  0  0  0  0  0  0  0  0  0  0
  1 20  2  0  0  0  0
  2 25  1  0  0  0  0
  2 26  1  0  0  0  0
  3 23  2  0  0  0  0
  4  5  1  0  0  0  0
  4 10  1  0  0  0  0
  4 12  1  0  0  0  0
  5  6  1  0  0  0  0
  5 30  1  0  0  0  0
  6 15  2  0  0  0  0
  7 12  2  0  0  0  0
  7 21  1  0  0  0  0
  8 20  1  0  0  0  0
  8 21  2  0  0  0  0
  9 23  1  0  0  0  0
  9 24  1  0  0  0  0
  9 41  1  0  0  0  0
 10 11  1  0  0  0  0
 10 27  1  0  0  0  0
 10 28  1  0  0  0  0
 11 13  2  0  0  0  0
 11 14  1  0  0  0  0
 12 15  1  0  0  0  0
 13 17  1  0  0  0  0
 13 19  1  0  0  0  0
 14 16  2  0  0  0  0
 14 29  1  0  0  0  0
 15 20  1  0  0  0  0
 16 18  1  0  0  0  0
 16 22  1  0  0  0  0
 17 18  2  0  0  0  0
 17 31  1  0  0  0  0
 18 32  1  0  0  0  0
 19 33  1  0  0  0  0
 19 34  1  0  0  0  0
 19 35  1  0  0  0  0
 21 23  1  0  0  0  0
 22 36  1  0  0  0  0
 22 37  1  0  0  0  0
 22 38  1  0  0  0  0
 24 25  1  0  0  0  0
 24 39  1  0  0  0  0
 24 40  1  0  0  0  0
 25 42  1  0  0  0  0
 25 43  1  0  0  0  0
 26 44  1  0  0  0  0
 26 45  1  0  0  0  0
 26 46  1  0  0  0  0
M  END
> <PUBCHEM_COMPOUND_CID>
3227698

> <PUBCHEM_CONFORMER_RMSD>
0.8

> <PUBCHEM_MMFF94_PARTIAL_CHARGES>
31
1 -0.57
10 0.51
11 -0.14
12 0.5
13 -0.14
14 -0.15
15 0.45
16 -0.14
17 -0.15
18 -0.15
19 0.14
2 -0.56
20 0.78
21 0.66
22 0.14
23 0.63
24 0.3
25 0.28
26 0.28
29 0.15
3 -0.57
30 0.36
31 0.15
32 0.15
4 -0.43
41 0.37
5 -0.3
6 -0.5
7 -0.66
8 -0.66
9 -0.73

> <PUBCHEM_EFFECTIVE_ROTOR_COUNT>
7

> <PUBCHEM_PHARMACOPHORE_FEATURES>
10
1 1 acceptor
1 2 acceptor
1 3 acceptor
1 6 acceptor
1 8 donor
1 9 donor
3 4 7 12 cation
5 4 5 6 12 15 rings
6 11 13 14 16 17 18 rings
6 7 8 12 15 20 21 rings

> <PUBCHEM_HEAVY_ATOM_COUNT>
26

> <PUBCHEM_ATOM_DEF_STEREO_COUNT>
0

> <PUBCHEM_ATOM_UDEF_STEREO_COUNT>
0

> <PUBCHEM_BOND_DEF_STEREO_COUNT>
0

> <PUBCHEM_BOND_UDEF_STEREO_COUNT>
0

> <PUBCHEM_ISOTOPIC_ATOM_COUNT>
0

> <PUBCHEM_COMPONENT_COUNT>
1

> <PUBCHEM_CACTVS_TAUTO_COUNT>
8

> <PUBCHEM_CONFORMER_ID>
0031403200000003

> <PUBCHEM_MMFF94_ENERGY>
64.7418

> <PUBCHEM_FEATURE_SELFOVERLAP>
-10.025

> <PUBCHEM_SHAPE_MULTIPOLES>
487.57
9.14
5.83
1.18
3.42
-7.45
-1.54
2.61
-1.13
3.16
1.17
-7.68
-5.11
-18.06

> <PUBCHEM_SHAPE_SELFOVERLAP>
1041.856

> <PUBCHEM_SHAPE_VOLUME>
270.3

> <PUBCHEM_COORDINATE_TYPE>
2
5
255

$$$$
3243760
  -OEChem-06081017553D

 45 48  0     0  0  0  0  0  0999 V2000
    3.4331   -0.4471   -2.3853 O   0  0  0  0  0  0  0  0  0  0  0  0
    3.8939    0.5550   -0.3411 N   0  0  0  0  0  0  0  0  0  0  0  0
   -2.1894   -1.0168    0.2551 N   0  0  0  0  0  0  0  0  0  0  0  0
   -0.7191   -2.6158    0.7260 N   0  0  0  0  0  0  0  0  0  0  0  0
    5.8104    0.7254    1.8144 C   0  0  0  0  0  0  0  0  0  0  0  0
    6.1967    0.1797    0.4396 C   0  0  0  0  0  0  0  0  0  0  0  0
    4.3185    0.5294    2.0851 C   0  0  0  0  0  0  0  0  0  0  0  0
    5.3085    0.7594   -0.6590 C   0  0  0  0  0  0  0  0  0  0  0  0
    3.4747    1.1105    0.9539 C   0  0  0  0  0  0  0  0  0  0  0  0
    3.0521   -0.0588   -1.2817 C   0  0  0  0  0  0  0  0  0  0  0  0
    1.6545   -0.2402   -0.9076 C   0  0  0  0  0  0  0  0  0  0  0  0
   -0.9856   -0.5569   -0.2137 C   0  0  0  0  0  0  0  0  0  0  0  0
    1.2674   -1.4176   -0.2596 C   0  0  0  0  0  0  0  0  0  0  0  0
   -0.0841   -1.5725    0.0922 C   0  0  0  0  0  0  0  0  0  0  0  0
    0.7301    0.7621   -1.2021 C   0  0  0  0  0  0  0  0  0  0  0  0
   -0.6191    0.6246   -0.8593 C   0  0  0  0  0  0  0  0  0  0  0  0
   -3.4170   -0.3602    0.1908 C   0  0  0  0  0  0  0  0  0  0  0  0
   -1.9787   -2.2497    0.8071 C   0  0  0  0  0  0  0  0  0  0  0  0
   -3.4551    1.0285    0.2111 C   0  0  0  0  0  0  0  0  0  0  0  0
   -4.5888   -1.1024    0.1080 C   0  0  0  0  0  0  0  0  0  0  0  0
   -4.6842    1.6854    0.1478 C   0  0  0  0  0  0  0  0  0  0  0  0
   -5.8177   -0.4457    0.0446 C   0  0  0  0  0  0  0  0  0  0  0  0
   -5.8654    0.9482    0.0645 C   0  0  0  0  0  0  0  0  0  0  0  0
   -4.7358    3.1757    0.1690 C   0  0  0  0  0  0  0  0  0  0  0  0
    6.3984    0.2251    2.5919 H   0  0  0  0  0  0  0  0  0  0  0  0
    6.0531    1.7940    1.8640 H   0  0  0  0  0  0  0  0  0  0  0  0
    7.2473    0.4084    0.2296 H   0  0  0  0  0  0  0  0  0  0  0  0
    6.0972   -0.9130    0.4480 H   0  0  0  0  0  0  0  0  0  0  0  0
    4.1084   -0.5429    2.1832 H   0  0  0  0  0  0  0  0  0  0  0  0
    4.0472    1.0029    3.0350 H   0  0  0  0  0  0  0  0  0  0  0  0
    5.4711    1.8393   -0.7561 H   0  0  0  0  0  0  0  0  0  0  0  0
    5.5644    0.3015   -1.6195 H   0  0  0  0  0  0  0  0  0  0  0  0
    2.4190    0.9215    1.1573 H   0  0  0  0  0  0  0  0  0  0  0  0
    3.6039    2.1979    0.8978 H   0  0  0  0  0  0  0  0  0  0  0  0
    1.9887   -2.1963   -0.0303 H   0  0  0  0  0  0  0  0  0  0  0  0
    1.0490    1.6641   -1.7206 H   0  0  0  0  0  0  0  0  0  0  0  0
   -1.3112    1.3951   -1.1707 H   0  0  0  0  0  0  0  0  0  0  0  0
   -2.7558   -2.8416    1.2731 H   0  0  0  0  0  0  0  0  0  0  0  0
   -2.5786    1.6401    0.3902 H   0  0  0  0  0  0  0  0  0  0  0  0
   -4.5892   -2.1881    0.0702 H   0  0  0  0  0  0  0  0  0  0  0  0
   -6.7374   -1.0193   -0.0244 H   0  0  0  0  0  0  0  0  0  0  0  0
   -6.8295    1.4474    0.0154 H   0  0  0  0  0  0  0  0  0  0  0  0
   -3.8927    3.6040   -0.3837 H   0  0  0  0  0  0  0  0  0  0  0  0
   -5.6509    3.5503   -0.3020 H   0  0  0  0  0  0  0  0  0  0  0  0
   -4.7024    3.5381    1.2012 H   0  0  0  0  0  0  0  0  0  0  0  0
  1 10  2  0  0  0  0
  2  8  1  0  0  0  0
  2  9  1  0  0  0  0
  2 10  1  0  0  0  0
  3 12  1  0  0  0  0
  3 17  1  0  0  0  0
  3 18  1  0  0  0  0
  4 14  1  0  0  0  0
  4 18  2  0  0  0  0
  5  6  1  0  0  0  0
  5  7  1  0  0  0  0
  5 25  1  0  0  0  0
  5 26  1  0  0  0  0
  6  8  1  0  0  0  0
  6 27  1  0  0  0  0
  6 28  1  0  0  0  0
  7  9  1  0  0  0  0
  7 29  1  0  0  0  0
  7 30  1  0  0  0  0
  8 31  1  0  0  0  0
  8 32  1  0  0  0  0
  9 33  1  0  0  0  0
  9 34  1  0  0  0  0
 10 11  1  0  0  0  0
 11 13  2  0  0  0  0
 11 15  1  0  0  0  0
 12 14  2  0  0  0  0
 12 16  1  0  0  0  0
 13 14  1  0  0  0  0
 13 35  1  0  0  0  0
 15 16  2  0  0  0  0
 15 36  1  0  0  0  0
 16 37  1  0  0  0  0
 17 19  1  0  0  0  0
 17 20  2  0  0  0  0
 18 38  1  0  0  0  0
 19 21  2  0  0  0  0
 19 39  1  0  0  0  0
 20 22  1  0  0  0  0
 20 40  1  0  0  0  0
 21 23  1  0  0  0  0
 21 24  1  0  0  0  0
 22 23  2  0  0  0  0
 22 41  1  0  0  0  0
 23 42  1  0  0  0  0
 24 43  1  0  0  0  0
 24 44  1  0  0  0  0
 24 45  1  0  0  0  0
M  END
> <PUBCHEM_COMPOUND_CID>
3243760

> <PUBCHEM_CONFORMER_RMSD>
0.8

> <PUBCHEM_MMFF94_PARTIAL_CHARGES>
29
1 -0.57
10 0.54
11 0.09
12 -0.15
13 -0.15
14 0.23
15 -0.15
16 -0.15
17 -0.02
18 0.04
19 -0.15
2 -0.66
20 -0.15
21 -0.14
22 -0.15
23 -0.15
24 0.14
3 0.33
35 0.15
36 0.15
37 0.15
38 0.15
39 0.15
4 -0.57
40 0.15
41 0.15
42 0.15
8 0.3
9 0.3

> <PUBCHEM_EFFECTIVE_ROTOR_COUNT>
4.2

> <PUBCHEM_PHARMACOPHORE_FEATURES>
6
1 1 acceptor
3 3 4 18 cation
5 3 4 12 14 18 rings
6 11 12 13 14 15 16 rings
6 17 19 20 21 22 23 rings
6 2 5 6 7 8 9 rings

> <PUBCHEM_HEAVY_ATOM_COUNT>
24

> <PUBCHEM_ATOM_DEF_STEREO_COUNT>
0

> <PUBCHEM_ATOM_UDEF_STEREO_COUNT>
0

> <PUBCHEM_BOND_DEF_STEREO_COUNT>
0

> <PUBCHEM_BOND_UDEF_STEREO_COUNT>
0

> <PUBCHEM_ISOTOPIC_ATOM_COUNT>
0

> <PUBCHEM_COMPONENT_COUNT>
1

> <PUBCHEM_CACTVS_TAUTO_COUNT>
1

> <PUBCHEM_CONFORMER_ID>
00317EF000000001

> <PUBCHEM_MMFF94_ENERGY>
69.0989

> <PUBCHEM_FEATURE_SELFOVERLAP>
-6.021

> <PUBCHEM_SHAPE_MULTIPOLES>
473.1
15.03
2.18
1.44
2.31
7.33
4.05
-6.2
6.84
-4.21
6.05
3.11
9.84
16.6

> <PUBCHEM_SHAPE_SELFOVERLAP>
1040.508

> <PUBCHEM_SHAPE_VOLUME>
257.8

> <PUBCHEM_COORDINATE_TYPE>
2
5
255

$$$$
882270
  -OEChem-06081017553D

 28 30  0     0  0  0  0  0  0999 V2000
   -7.0590   -0.2139    0.2809 Br  0  0  0  0  0  0  0  0  0  0  0  0
    0.8746   -0.9077    0.6514 S   0  0  0  0  0  0  0  0  0  0  0  0
    3.3727    1.6578    1.4069 F   0  0  0  0  0  0  0  0  0  0  0  0
   -1.7936   -1.1083    0.9353 N   0  0  0  0  0  0  0  0  0  0  0  0
   -1.1764    0.4468   -0.5347 N   0  0  0  0  0  0  0  0  0  0  0  0
   -3.4089    1.1804   -1.1437 N   0  0  0  0  0  0  0  0  0  0  0  0
   -2.9576   -0.5631    0.4661 C   0  0  0  0  0  0  0  0  0  0  0  0
   -0.7567   -0.4720    0.3076 C   0  0  0  0  0  0  0  0  0  0  0  0
    1.7874    0.2222   -0.4400 C   0  0  0  0  0  0  0  0  0  0  0  0
   -2.5449    0.4012   -0.4465 C   0  0  0  0  0  0  0  0  0  0  0  0
    3.2760    0.0403   -0.3278 C   0  0  0  0  0  0  0  0  0  0  0  0
   -4.3021   -0.7988    0.7309 C   0  0  0  0  0  0  0  0  0  0  0  0
    3.9914    0.7804    0.6045 C   0  0  0  0  0  0  0  0  0  0  0  0
    3.9171   -0.8679   -1.1604 C   0  0  0  0  0  0  0  0  0  0  0  0
   -5.2014   -0.0063    0.0224 C   0  0  0  0  0  0  0  0  0  0  0  0
   -4.7135    0.9383   -0.8743 C   0  0  0  0  0  0  0  0  0  0  0  0
    5.3719    0.6094    0.7060 C   0  0  0  0  0  0  0  0  0  0  0  0
    5.2977   -1.0388   -1.0588 C   0  0  0  0  0  0  0  0  0  0  0  0
    6.0252   -0.3002   -0.1257 C   0  0  0  0  0  0  0  0  0  0  0  0
    1.5201    1.2579   -0.1984 H   0  0  0  0  0  0  0  0  0  0  0  0
    1.4731    0.0556   -1.4775 H   0  0  0  0  0  0  0  0  0  0  0  0
   -1.7112   -1.8475    1.6205 H   0  0  0  0  0  0  0  0  0  0  0  0
   -4.6178   -1.5517    1.4436 H   0  0  0  0  0  0  0  0  0  0  0  0
    3.3607   -1.4494   -1.8902 H   0  0  0  0  0  0  0  0  0  0  0  0
   -5.3968    1.5690   -1.4387 H   0  0  0  0  0  0  0  0  0  0  0  0
    5.9381    1.1848    1.4325 H   0  0  0  0  0  0  0  0  0  0  0  0
    5.8063   -1.7473   -1.7061 H   0  0  0  0  0  0  0  0  0  0  0  0
    7.1002   -0.4333   -0.0466 H   0  0  0  0  0  0  0  0  0  0  0  0
  1 15  1  0  0  0  0
  2  8  1  0  0  0  0
  2  9  1  0  0  0  0
  3 13  1  0  0  0  0
  4  7  1  0  0  0  0
  4  8  1  0  0  0  0
  4 22  1  0  0  0  0
  5  8  2  0  0  0  0
  5 10  1  0  0  0  0
  6 10  1  0  0  0  0
  6 16  2  0  0  0  0
  7 10  2  0  0  0  0
  7 12  1  0  0  0  0
  9 11  1  0  0  0  0
  9 20  1  0  0  0  0
  9 21  1  0  0  0  0
 11 13  1  0  0  0  0
 11 14  2  0  0  0  0
 12 15  2  0  0  0  0
 12 23  1  0  0  0  0
 13 17  2  0  0  0  0
 14 18  1  0  0  0  0
 14 24  1  0  0  0  0
 15 16  1  0  0  0  0
 16 25  1  0  0  0  0
 17 19  1  0  0  0  0
 17 26  1  0  0  0  0
 18 19  2  0  0  0  0
 18 27  1  0  0  0  0
 19 28  1  0  0  0  0
M  END
> <PUBCHEM_COMPOUND_CID>
882270

> <PUBCHEM_CONFORMER_RMSD>
0.6

> <PUBCHEM_MMFF94_PARTIAL_CHARGES>
26
1 -0.11
10 0.48
11 -0.14
12 -0.15
13 0.19
14 -0.15
15 0.11
16 0.16
17 -0.15
18 -0.15
19 -0.15
2 -0.29
22 0.27
23 0.15
24 0.15
25 0.15
26 0.15
27 0.15
28 0.15
3 -0.19
4 0.03
5 -0.57
6 -0.57
7 -0.15
8 0.24
9 0.37

> <PUBCHEM_EFFECTIVE_ROTOR_COUNT>
3

> <PUBCHEM_PHARMACOPHORE_FEATURES>
7
1 1 hydrophobe
1 4 donor
1 6 acceptor
3 4 5 8 cation
5 4 5 7 8 10 rings
6 11 13 14 17 18 19 rings
6 6 7 10 12 15 16 rings

> <PUBCHEM_HEAVY_ATOM_COUNT>
19

> <PUBCHEM_ATOM_DEF_STEREO_COUNT>
0

> <PUBCHEM_ATOM_UDEF_STEREO_COUNT>
0

> <PUBCHEM_BOND_DEF_STEREO_COUNT>
0

> <PUBCHEM_BOND_UDEF_STEREO_COUNT>
0

> <PUBCHEM_ISOTOPIC_ATOM_COUNT>
0

> <PUBCHEM_COMPONENT_COUNT>
1

> <PUBCHEM_CACTVS_TAUTO_COUNT>
3

> <PUBCHEM_CONFORMER_ID>
000D765E00000001

> <PUBCHEM_MMFF94_ENERGY>
33.4554

> <PUBCHEM_FEATURE_SELFOVERLAP>
-7.025

> <PUBCHEM_SHAPE_MULTIPOLES>
378.59
17.28
1.16
1.1
3.04
0.39
0.38
-0.75
-6.33
0.11
1.03
5.2
1.39
0.51

> <PUBCHEM_SHAPE_SELFOVERLAP>
804.206

> <PUBCHEM_SHAPE_VOLUME>
216.2

> <PUBCHEM_COORDINATE_TYPE>
2
5
255

$$$$
650171
  -OEChem-06081017553D

 46 49  0     0  0  0  0  0  0999 V2000
   -0.8751    4.7179   -1.1772 O   0  0  0  0  0  0  0  0  0  0  0  0
    5.2510   -0.9529    0.6667 O   0  0  0  0  0  0  0  0  0  0  0  0
    2.9774    2.0602    1.2600 O   0  0  0  0  0  0  0  0  0  0  0  0
   -2.4092    0.9146    0.7599 N   0  0  0  0  0  0  0  0  0  0  0  0
   -3.4269    1.8026    0.3560 N   0  0  0  0  0  0  0  0  0  0  0  0
   -2.8571    2.9416   -0.1911 N   0  0  0  0  0  0  0  0  0  0  0  0
    0.0239    1.1845    0.5647 N   0  0  0  0  0  0  0  0  0  0  0  0
    0.7683    3.2377   -0.4798 N   0  0  0  0  0  0  0  0  0  0  0  0
    2.8983    1.0195   -0.8404 N   0  0  0  0  0  0  0  0  0  0  0  0
   -2.6604   -0.2765    1.5184 C   0  0  0  0  0  0  0  0  0  0  0  0
   -2.7064   -1.4868    0.6260 C   0  0  0  0  0  0  0  0  0  0  0  0
   -3.9052   -1.9013    0.0590 C   0  0  0  0  0  0  0  0  0  0  0  0
   -1.2190    1.4820    0.4430 C   0  0  0  0  0  0  0  0  0  0  0  0
   -1.5272   -2.1800    0.3817 C   0  0  0  0  0  0  0  0  0  0  0  0
   -1.5791    2.7581   -0.1760 C   0  0  0  0  0  0  0  0  0  0  0  0
   -1.5472   -3.3050   -0.4427 C   0  0  0  0  0  0  0  0  0  0  0  0
   -3.9252   -3.0263   -0.7653 C   0  0  0  0  0  0  0  0  0  0  0  0
   -2.7463   -3.7283   -1.0162 C   0  0  0  0  0  0  0  0  0  0  0  0
   -5.1799   -1.1656    0.3127 C   0  0  0  0  0  0  0  0  0  0  0  0
   -0.5264    3.6667   -0.6596 C   0  0  0  0  0  0  0  0  0  0  0  0
    0.9714    2.0828    0.0918 C   0  0  0  0  0  0  0  0  0  0  0  0
   -0.2869   -4.0559   -0.7110 C   0  0  0  0  0  0  0  0  0  0  0  0
    2.4101    1.7160    0.2379 C   0  0  0  0  0  0  0  0  0  0  0  0
    4.2659    0.5603   -0.9188 C   0  0  0  0  0  0  0  0  0  0  0  0
    4.4018   -0.8328   -0.3674 C   0  0  0  0  0  0  0  0  0  0  0  0
    3.8259   -2.0048   -0.7166 C   0  0  0  0  0  0  0  0  0  0  0  0
    4.3611   -2.9589    0.1814 C   0  0  0  0  0  0  0  0  0  0  0  0
    5.2224   -2.2694    1.0026 C   0  0  0  0  0  0  0  0  0  0  0  0
   -3.5701   -0.1780    2.1208 H   0  0  0  0  0  0  0  0  0  0  0  0
   -1.8658   -0.4098    2.2653 H   0  0  0  0  0  0  0  0  0  0  0  0
   -0.5920   -1.8527    0.8290 H   0  0  0  0  0  0  0  0  0  0  0  0
   -3.9956    2.0719    1.1579 H   0  0  0  0  0  0  0  0  0  0  0  0
   -4.8504   -3.3696   -1.2207 H   0  0  0  0  0  0  0  0  0  0  0  0
   -2.7751   -4.6042   -1.6589 H   0  0  0  0  0  0  0  0  0  0  0  0
   -6.0330   -1.6868   -0.1377 H   0  0  0  0  0  0  0  0  0  0  0  0
   -5.3967   -1.0974    1.3830 H   0  0  0  0  0  0  0  0  0  0  0  0
   -5.1545   -0.1684   -0.1319 H   0  0  0  0  0  0  0  0  0  0  0  0
   -0.1357   -4.8223    0.0556 H   0  0  0  0  0  0  0  0  0  0  0  0
   -0.3162   -4.5422   -1.6919 H   0  0  0  0  0  0  0  0  0  0  0  0
    0.5787   -3.3847   -0.7125 H   0  0  0  0  0  0  0  0  0  0  0  0
    4.9133    1.2570   -0.3750 H   0  0  0  0  0  0  0  0  0  0  0  0
    4.5582    0.5694   -1.9737 H   0  0  0  0  0  0  0  0  0  0  0  0
    2.2772    0.8010   -1.6144 H   0  0  0  0  0  0  0  0  0  0  0  0
    3.1116   -2.1758   -1.5090 H   0  0  0  0  0  0  0  0  0  0  0  0
    4.1452   -4.0167    0.2250 H   0  0  0  0  0  0  0  0  0  0  0  0
    5.8562   -2.5545    1.8297 H   0  0  0  0  0  0  0  0  0  0  0  0
  1 20  2  0  0  0  0
  2 25  1  0  0  0  0
  2 28  1  0  0  0  0
  3 23  2  0  0  0  0
  4  5  1  0  0  0  0
  4 10  1  0  0  0  0
  4 13  1  0  0  0  0
  5  6  1  0  0  0  0
  5 32  1  0  0  0  0
  6 15  2  0  0  0  0
  7 13  2  0  0  0  0
  7 21  1  0  0  0  0
  8 20  1  0  0  0  0
  8 21  2  0  0  0  0
  9 23  1  0  0  0  0
  9 24  1  0  0  0  0
  9 43  1  0  0  0  0
 10 11  1  0  0  0  0
 10 29  1  0  0  0  0
 10 30  1  0  0  0  0
 11 12  2  0  0  0  0
 11 14  1  0  0  0  0
 12 17  1  0  0  0  0
 12 19  1  0  0  0  0
 13 15  1  0  0  0  0
 14 16  2  0  0  0  0
 14 31  1  0  0  0  0
 15 20  1  0  0  0  0
 16 18  1  0  0  0  0
 16 22  1  0  0  0  0
 17 18  2  0  0  0  0
 17 33  1  0  0  0  0
 18 34  1  0  0  0  0
 19 35  1  0  0  0  0
 19 36  1  0  0  0  0
 19 37  1  0  0  0  0
 21 23  1  0  0  0  0
 22 38  1  0  0  0  0
 22 39  1  0  0  0  0
 22 40  1  0  0  0  0
 24 25  1  0  0  0  0
 24 41  1  0  0  0  0
 24 42  1  0  0  0  0
 25 26  2  0  0  0  0
 26 27  1  0  0  0  0
 26 44  1  0  0  0  0
 27 28  2  0  0  0  0
 27 45  1  0  0  0  0
 28 46  1  0  0  0  0
M  END
> <PUBCHEM_COMPOUND_CID>
650171

> <PUBCHEM_CONFORMER_RMSD>
0.8

> <PUBCHEM_MMFF94_PARTIAL_CHARGES>
36
1 -0.57
10 0.51
11 -0.14
12 -0.14
13 0.5
14 -0.15
15 0.45
16 -0.14
17 -0.15
18 -0.15
19 0.14
2 -0.28
20 0.78
21 0.66
22 0.14
23 0.63
24 0.48
25 -0.04
26 -0.15
27 -0.15
28 -0.01
3 -0.57
31 0.15
32 0.36
33 0.15
34 0.15
4 -0.43
43 0.37
44 0.15
45 0.15
46 0.15
5 -0.3
6 -0.5
7 -0.66
8 -0.66
9 -0.73

> <PUBCHEM_EFFECTIVE_ROTOR_COUNT>
6

> <PUBCHEM_PHARMACOPHORE_FEATURES>
11
1 1 acceptor
1 2 acceptor
1 3 acceptor
1 6 acceptor
1 8 donor
1 9 donor
3 4 7 13 cation
5 2 25 26 27 28 rings
5 4 5 6 13 15 rings
6 11 12 14 16 17 18 rings
6 7 8 13 15 20 21 rings

> <PUBCHEM_HEAVY_ATOM_COUNT>
28

> <PUBCHEM_ATOM_DEF_STEREO_COUNT>
0

> <PUBCHEM_ATOM_UDEF_STEREO_COUNT>
0

> <PUBCHEM_BOND_DEF_STEREO_COUNT>
0

> <PUBCHEM_BOND_UDEF_STEREO_COUNT>
0

> <PUBCHEM_ISOTOPIC_ATOM_COUNT>
0

> <PUBCHEM_COMPONENT_COUNT>
1

> <PUBCHEM_CACTVS_TAUTO_COUNT>
8

> <PUBCHEM_CONFORMER_ID>
0009EBBB00000002

> <PUBCHEM_MMFF94_ENERGY>
61.5564

> <PUBCHEM_FEATURE_SELFOVERLAP>
-11.025

> <PUBCHEM_SHAPE_MULTIPOLES>
528.73
10.19
6.43
1.07
6.18
-6.81
-0.98
1.68
-3.45
4.07
6.1
-3.58
11.56
-21.85

> <PUBCHEM_SHAPE_SELFOVERLAP>
1159.743

> <PUBCHEM_SHAPE_VOLUME>
285.9

> <PUBCHEM_COORDINATE_TYPE>
2
5
255

$$$$
1222996
  -OEChem-06081017553D

 43 45  0     0  0  0  0  0  0999 V2000
   -2.7961   -2.5776    0.4469 Br  0  0  0  0  0  0  0  0  0  0  0  0
    4.0767    2.1056    0.8891 O   0  0  0  0  0  0  0  0  0  0  0  0
   -2.7097    0.3316   -0.6805 O   0  0  0  0  0  0  0  0  0  0  0  0
    4.1478    0.0564   -0.2347 N   0  0  0  0  0  0  0  0  0  0  0  0
    5.1278   -2.6568   -0.3463 C   0  0  0  0  0  0  0  0  0  0  0  0
    5.9221   -1.5481    0.3450 C   0  0  0  0  0  0  0  0  0  0  0  0
    3.6311   -2.3453   -0.3444 C   0  0  0  0  0  0  0  0  0  0  0  0
    5.5970   -0.1829   -0.2553 C   0  0  0  0  0  0  0  0  0  0  0  0
    3.3512   -0.9602   -0.9225 C   0  0  0  0  0  0  0  0  0  0  0  0
    3.5141    1.1664    0.3282 C   0  0  0  0  0  0  0  0  0  0  0  0
    2.0503    1.2445    0.2445 C   0  0  0  0  0  0  0  0  0  0  0  0
    1.2678    0.6956    1.2572 C   0  0  0  0  0  0  0  0  0  0  0  0
    1.4515    1.8690   -0.8467 C   0  0  0  0  0  0  0  0  0  0  0  0
   -0.7263    1.3963    0.0865 C   0  0  0  0  0  0  0  0  0  0  0  0
   -0.1228    0.7715    1.1780 C   0  0  0  0  0  0  0  0  0  0  0  0
    0.0610    1.9451   -0.9257 C   0  0  0  0  0  0  0  0  0  0  0  0
   -2.2132    1.4763    0.0019 C   0  0  0  0  0  0  0  0  0  0  0  0
   -3.9757   -0.0795   -0.3560 C   0  0  0  0  0  0  0  0  0  0  0  0
   -4.2109   -1.3490    0.1621 C   0  0  0  0  0  0  0  0  0  0  0  0
   -5.0291    0.8074   -0.5569 C   0  0  0  0  0  0  0  0  0  0  0  0
   -5.5122   -1.7358    0.4827 C   0  0  0  0  0  0  0  0  0  0  0  0
   -6.3304    0.4206   -0.2363 C   0  0  0  0  0  0  0  0  0  0  0  0
   -6.5719   -0.8511    0.2834 C   0  0  0  0  0  0  0  0  0  0  0  0
    5.4768   -2.7650   -1.3805 H   0  0  0  0  0  0  0  0  0  0  0  0
    5.3093   -3.6131    0.1565 H   0  0  0  0  0  0  0  0  0  0  0  0
    5.6755   -1.5441    1.4140 H   0  0  0  0  0  0  0  0  0  0  0  0
    6.9956   -1.7479    0.2594 H   0  0  0  0  0  0  0  0  0  0  0  0
    3.0940   -3.1061   -0.9215 H   0  0  0  0  0  0  0  0  0  0  0  0
    3.2553   -2.3926    0.6853 H   0  0  0  0  0  0  0  0  0  0  0  0
    6.1030    0.6096    0.3052 H   0  0  0  0  0  0  0  0  0  0  0  0
    5.9289   -0.1239   -1.2980 H   0  0  0  0  0  0  0  0  0  0  0  0
    3.6460   -0.9319   -1.9792 H   0  0  0  0  0  0  0  0  0  0  0  0
    2.2749   -0.7919   -0.9011 H   0  0  0  0  0  0  0  0  0  0  0  0
    1.7285    0.2056    2.1109 H   0  0  0  0  0  0  0  0  0  0  0  0
    2.0561    2.2990   -1.6409 H   0  0  0  0  0  0  0  0  0  0  0  0
   -0.7253    0.3377    1.9717 H   0  0  0  0  0  0  0  0  0  0  0  0
   -0.3971    2.4323   -1.7824 H   0  0  0  0  0  0  0  0  0  0  0  0
   -2.6370    1.5528    1.0128 H   0  0  0  0  0  0  0  0  0  0  0  0
   -2.5131    2.3801   -0.5430 H   0  0  0  0  0  0  0  0  0  0  0  0
   -4.8590    1.7976   -0.9702 H   0  0  0  0  0  0  0  0  0  0  0  0
   -5.7194   -2.7227    0.8887 H   0  0  0  0  0  0  0  0  0  0  0  0
   -7.1559    1.1086   -0.3936 H   0  0  0  0  0  0  0  0  0  0  0  0
   -7.5853   -1.1523    0.5323 H   0  0  0  0  0  0  0  0  0  0  0  0
  1 19  1  0  0  0  0
  2 10  2  0  0  0  0
  3 17  1  0  0  0  0
  3 18  1  0  0  0  0
  4  8  1  0  0  0  0
  4  9  1  0  0  0  0
  4 10  1  0  0  0  0
  5  6  1  0  0  0  0
  5  7  1  0  0  0  0
  5 24  1  0  0  0  0
  5 25  1  0  0  0  0
  6  8  1  0  0  0  0
  6 26  1  0  0  0  0
  6 27  1  0  0  0  0
  7  9  1  0  0  0  0
  7 28  1  0  0  0  0
  7 29  1  0  0  0  0
  8 30  1  0  0  0  0
  8 31  1  0  0  0  0
  9 32  1  0  0  0  0
  9 33  1  0  0  0  0
 10 11  1  0  0  0  0
 11 12  2  0  0  0  0
 11 13  1  0  0  0  0
 12 15  1  0  0  0  0
 12 34  1  0  0  0  0
 13 16  2  0  0  0  0
 13 35  1  0  0  0  0
 14 15  2  0  0  0  0
 14 16  1  0  0  0  0
 14 17  1  0  0  0  0
 15 36  1  0  0  0  0
 16 37  1  0  0  0  0
 17 38  1  0  0  0  0
 17 39  1  0  0  0  0
 18 19  1  0  0  0  0
 18 20  2  0  0  0  0
 19 21  2  0  0  0  0
 20 22  1  0  0  0  0
 20 40  1  0  0  0  0
 21 23  1  0  0  0  0
 21 41  1  0  0  0  0
 22 23  2  0  0  0  0
 22 42  1  0  0  0  0
 23 43  1  0  0  0  0
M  END
> <PUBCHEM_COMPOUND_CID>
1222996

> <PUBCHEM_CONFORMER_RMSD>
0.8

> <PUBCHEM_MMFF94_PARTIAL_CHARGES>
28
1 -0.11
10 0.54
11 0.09
12 -0.15
13 -0.15
14 -0.14
15 -0.15
16 -0.15
17 0.42
18 0.08
19 0.11
2 -0.57
20 -0.15
21 -0.15
22 -0.15
23 -0.15
3 -0.36
34 0.15
35 0.15
36 0.15
37 0.15
4 -0.66
40 0.15
41 0.15
42 0.15
43 0.15
8 0.3
9 0.3

> <PUBCHEM_EFFECTIVE_ROTOR_COUNT>
6.2

> <PUBCHEM_PHARMACOPHORE_FEATURES>
6
1 1 hydrophobe
1 2 acceptor
1 3 acceptor
6 11 12 13 14 15 16 rings
6 18 19 20 21 22 23 rings
6 4 5 6 7 8 9 rings

> <PUBCHEM_HEAVY_ATOM_COUNT>
23

> <PUBCHEM_ATOM_DEF_STEREO_COUNT>
0

> <PUBCHEM_ATOM_UDEF_STEREO_COUNT>
0

> <PUBCHEM_BOND_DEF_STEREO_COUNT>
0

> <PUBCHEM_BOND_UDEF_STEREO_COUNT>
0

> <PUBCHEM_ISOTOPIC_ATOM_COUNT>
0

> <PUBCHEM_COMPONENT_COUNT>
1

> <PUBCHEM_CACTVS_TAUTO_COUNT>
1

> <PUBCHEM_CONFORMER_ID>
0012A95400000001

> <PUBCHEM_MMFF94_ENERGY>
65.9589

> <PUBCHEM_FEATURE_SELFOVERLAP>
-6

> <PUBCHEM_SHAPE_MULTIPOLES>
462.55
16.42
2.81
0.97
5.03
9.6
-0.5
0.99
-3.87
-6.46
-0.96
4.76
9.67
19.38

> <PUBCHEM_SHAPE_SELFOVERLAP>
971.539

> <PUBCHEM_SHAPE_VOLUME>
265.9

> <PUBCHEM_COORDINATE_TYPE>
2
5
255

$$$$
1422364
  -OEChem-06081017553D

 32 34  0     0  0  0  0  0  0999 V2000
   -7.9071    1.1321    0.3674 Br  0  0  0  0  0  0  0  0  0  0  0  0
   -0.7048   -2.2636   -0.0273 S   0  0  0  0  0  0  0  0  0  0  0  0
    2.1101   -3.0065   -0.8072 O   0  0  0  0  0  0  0  0  0  0  0  0
    5.4951    3.0130    0.2053 O   0  5  0  0  0  0  0  0  0  0  0  0
    3.4651    2.9798   -0.6296 O   0  0  0  0  0  0  0  0  0  0  0  0
   -3.3185   -1.6742    0.2203 N   0  0  0  0  0  0  0  0  0  0  0  0
   -2.0506    0.1025   -0.2229 N   0  0  0  0  0  0  0  0  0  0  0  0
   -3.8402    1.7425   -0.2527 N   0  0  0  0  0  0  0  0  0  0  0  0
    4.4542    2.3952   -0.1252 N   0  3  0  0  0  0  0  0  0  0  0  0
   -4.1799   -0.6127    0.1630 C   0  0  0  0  0  0  0  0  0  0  0  0
   -2.0575   -1.1965   -0.0167 C   0  0  0  0  0  0  0  0  0  0  0  0
   -3.3655    0.4795   -0.1140 C   0  0  0  0  0  0  0  0  0  0  0  0
    3.2211   -1.0769   -0.0701 C   0  0  0  0  0  0  0  0  0  0  0  0
    0.6576   -1.1173   -0.3889 C   0  0  0  0  0  0  0  0  0  0  0  0
    1.9926   -1.8361   -0.4522 C   0  0  0  0  0  0  0  0  0  0  0  0
   -5.5557   -0.4845    0.3192 C   0  0  0  0  0  0  0  0  0  0  0  0
    3.2470    0.2822   -0.2807 C   0  0  0  0  0  0  0  0  0  0  0  0
    4.2768   -1.7673    0.4787 C   0  0  0  0  0  0  0  0  0  0  0  0
    4.3938    0.9910    0.0777 C   0  0  0  0  0  0  0  0  0  0  0  0
   -6.0579    0.8065    0.1797 C   0  0  0  0  0  0  0  0  0  0  0  0
    5.4233   -1.0588    0.8369 C   0  0  0  0  0  0  0  0  0  0  0  0
    5.4819    0.3205    0.6366 C   0  0  0  0  0  0  0  0  0  0  0  0
   -5.1810    1.8499   -0.0976 C   0  0  0  0  0  0  0  0  0  0  0  0
   -3.5655   -2.6376    0.4035 H   0  0  0  0  0  0  0  0  0  0  0  0
    0.4821   -0.6299   -1.3530 H   0  0  0  0  0  0  0  0  0  0  0  0
    0.6759   -0.3687    0.4089 H   0  0  0  0  0  0  0  0  0  0  0  0
   -6.1855   -1.3395    0.5354 H   0  0  0  0  0  0  0  0  0  0  0  0
    2.4028    0.7916   -0.7346 H   0  0  0  0  0  0  0  0  0  0  0  0
    4.2425   -2.8395    0.6456 H   0  0  0  0  0  0  0  0  0  0  0  0
    6.2699   -1.5808    1.2734 H   0  0  0  0  0  0  0  0  0  0  0  0
    6.3913    0.8396    0.9284 H   0  0  0  0  0  0  0  0  0  0  0  0
   -5.5502    2.8668   -0.2106 H   0  0  0  0  0  0  0  0  0  0  0  0
  1 20  1  0  0  0  0
  2 11  1  0  0  0  0
  2 14  1  0  0  0  0
  3 15  2  0  0  0  0
  4  9  1  0  0  0  0
  5  9  2  0  0  0  0
  6 10  1  0  0  0  0
  6 11  1  0  0  0  0
  6 24  1  0  0  0  0
  7 11  2  0  0  0  0
  7 12  1  0  0  0  0
  8 12  1  0  0  0  0
  8 23  2  0  0  0  0
  9 19  1  0  0  0  0
 10 12  2  0  0  0  0
 10 16  1  0  0  0  0
 13 15  1  0  0  0  0
 13 17  2  0  0  0  0
 13 18  1  0  0  0  0
 14 15  1  0  0  0  0
 14 25  1  0  0  0  0
 14 26  1  0  0  0  0
 16 20  2  0  0  0  0
 16 27  1  0  0  0  0
 17 19  1  0  0  0  0
 17 28  1  0  0  0  0
 18 21  2  0  0  0  0
 18 29  1  0  0  0  0
 19 22  2  0  0  0  0
 20 23  1  0  0  0  0
 21 22  1  0  0  0  0
 21 30  1  0  0  0  0
 22 31  1  0  0  0  0
 23 32  1  0  0  0  0
M  CHG  2   4  -1   9   1
M  END
> <PUBCHEM_COMPOUND_CID>
1422364

> <PUBCHEM_CONFORMER_RMSD>
0.8

> <PUBCHEM_MMFF94_PARTIAL_CHARGES>
30
1 -0.11
10 -0.15
11 0.24
12 0.48
13 0.09
14 0.29
15 0.42
16 -0.15
17 -0.15
18 -0.15
19 0.13
2 -0.29
20 0.11
21 -0.15
22 -0.15
23 0.16
24 0.27
27 0.15
28 0.15
29 0.15
3 -0.57
30 0.15
31 0.15
32 0.15
4 -0.52
5 -0.52
6 0.03
7 -0.57
8 -0.57
9 0.91

> <PUBCHEM_EFFECTIVE_ROTOR_COUNT>
5

> <PUBCHEM_PHARMACOPHORE_FEATURES>
11
1 1 hydrophobe
1 3 acceptor
1 4 acceptor
1 4 anion
1 5 acceptor
1 6 donor
1 8 acceptor
3 6 7 11 cation
5 6 7 10 11 12 rings
6 13 17 18 19 21 22 rings
6 8 10 12 16 20 23 rings

> <PUBCHEM_HEAVY_ATOM_COUNT>
23

> <PUBCHEM_ATOM_DEF_STEREO_COUNT>
0

> <PUBCHEM_ATOM_UDEF_STEREO_COUNT>
0

> <PUBCHEM_BOND_DEF_STEREO_COUNT>
0

> <PUBCHEM_BOND_UDEF_STEREO_COUNT>
0

> <PUBCHEM_ISOTOPIC_ATOM_COUNT>
0

> <PUBCHEM_COMPONENT_COUNT>
1

> <PUBCHEM_CACTVS_TAUTO_COUNT>
6

> <PUBCHEM_CONFORMER_ID>
0015B41C00000001

> <PUBCHEM_MMFF94_ENERGY>
54.2887

> <PUBCHEM_FEATURE_SELFOVERLAP>
-11.042

> <PUBCHEM_SHAPE_MULTIPOLES>
445.59
19.14
3.04
0.74
12.53
11.48
-3.12
4.59
-8.53
-7.29
-7.62
-0.44
22.7
23.68

> <PUBCHEM_SHAPE_SELFOVERLAP>
949.702

> <PUBCHEM_SHAPE_VOLUME>
254.1

> <PUBCHEM_COORDINATE_TYPE>
2
5
255

$$$$
2966785
  -OEChem-06081017553D

 34 36  0     0  0  0  0  0  0999 V2000
   -0.9059    0.4104    1.1172 S   0  0  0  0  0  0  0  0  0  0  0  0
    2.5878   -2.6445   -0.5052 O   0  0  0  0  0  0  0  0  0  0  0  0
    1.6305    1.0713    0.6623 N   0  0  0  0  0  0  0  0  0  0  0  0
    0.9861   -1.1891    0.2530 N   0  0  0  0  0  0  0  0  0  0  0  0
   -3.2418    0.2115   -0.3187 C   0  0  0  0  0  0  0  0  0  0  0  0
   -1.7573   -0.0093   -0.4154 C   0  0  0  0  0  0  0  0  0  0  0  0
   -4.0816   -0.8080    0.1131 C   0  0  0  0  0  0  0  0  0  0  0  0
    2.9532    0.8374    0.2807 C   0  0  0  0  0  0  0  0  0  0  0  0
    3.3194   -0.4520   -0.1326 C   0  0  0  0  0  0  0  0  0  0  0  0
    0.7390    0.0316    0.6199 C   0  0  0  0  0  0  0  0  0  0  0  0
   -3.7553    1.4544   -0.6697 C   0  0  0  0  0  0  0  0  0  0  0  0
   -5.4556   -0.5810    0.1952 C   0  0  0  0  0  0  0  0  0  0  0  0
    3.9158    1.8497    0.3008 C   0  0  0  0  0  0  0  0  0  0  0  0
    4.6326   -0.7287   -0.5221 C   0  0  0  0  0  0  0  0  0  0  0  0
    2.2724   -1.5150   -0.1440 C   0  0  0  0  0  0  0  0  0  0  0  0
   -3.5445   -2.1488    0.4926 C   0  0  0  0  0  0  0  0  0  0  0  0
   -5.1291    1.6811   -0.5874 C   0  0  0  0  0  0  0  0  0  0  0  0
   -5.9792    0.6634   -0.1550 C   0  0  0  0  0  0  0  0  0  0  0  0
    5.2283    1.5754   -0.0872 C   0  0  0  0  0  0  0  0  0  0  0  0
    5.5851    0.2901   -0.4975 C   0  0  0  0  0  0  0  0  0  0  0  0
   -1.5325   -1.0386   -0.7121 H   0  0  0  0  0  0  0  0  0  0  0  0
   -1.3498    0.6158   -1.2201 H   0  0  0  0  0  0  0  0  0  0  0  0
    1.3575    1.9992    0.9608 H   0  0  0  0  0  0  0  0  0  0  0  0
   -3.1043    2.2564   -1.0069 H   0  0  0  0  0  0  0  0  0  0  0  0
   -6.1325   -1.3629    0.5294 H   0  0  0  0  0  0  0  0  0  0  0  0
    3.6525    2.8556    0.6179 H   0  0  0  0  0  0  0  0  0  0  0  0
    4.9307   -1.7221   -0.8444 H   0  0  0  0  0  0  0  0  0  0  0  0
   -4.3345   -2.8010    0.8823 H   0  0  0  0  0  0  0  0  0  0  0  0
   -3.1148   -2.6540   -0.3784 H   0  0  0  0  0  0  0  0  0  0  0  0
   -2.7907   -2.0666    1.2813 H   0  0  0  0  0  0  0  0  0  0  0  0
   -5.5370    2.6501   -0.8597 H   0  0  0  0  0  0  0  0  0  0  0  0
   -7.0489    0.8402   -0.0912 H   0  0  0  0  0  0  0  0  0  0  0  0
    5.9742    2.3648   -0.0700 H   0  0  0  0  0  0  0  0  0  0  0  0
    6.6080    0.0827   -0.7985 H   0  0  0  0  0  0  0  0  0  0  0  0
  1  6  1  0  0  0  0
  1 10  1  0  0  0  0
  2 15  2  0  0  0  0
  3  8  1  0  0  0  0
  3 10  1  0  0  0  0
  3 23  1  0  0  0  0
  4 10  2  0  0  0  0
  4 15  1  0  0  0  0
  5  6  1  0  0  0  0
  5  7  1  0  0  0  0
  5 11  2  0  0  0  0
  6 21  1  0  0  0  0
  6 22  1  0  0  0  0
  7 12  2  0  0  0  0
  7 16  1  0  0  0  0
  8  9  1  0  0  0  0
  8 13  2  0  0  0  0
  9 14  2  0  0  0  0
  9 15  1  0  0  0  0
 11 17  1  0  0  0  0
 11 24  1  0  0  0  0
 12 18  1  0  0  0  0
 12 25  1  0  0  0  0
 13 19  1  0  0  0  0
 13 26  1  0  0  0  0
 14 20  1  0  0  0  0
 14 27  1  0  0  0  0
 16 28  1  0  0  0  0
 16 29  1  0  0  0  0
 16 30  1  0  0  0  0
 17 18  2  0  0  0  0
 17 31  1  0  0  0  0
 18 32  1  0  0  0  0
 19 20  2  0  0  0  0
 19 33  1  0  0  0  0
 20 34  1  0  0  0  0
M  END
> <PUBCHEM_COMPOUND_CID>
2966785

> <PUBCHEM_CONFORMER_RMSD>
0.6

> <PUBCHEM_MMFF94_PARTIAL_CHARGES>
29
1 -0.37
10 0.64
11 -0.15
12 -0.15
13 -0.15
14 -0.15
15 0.69
16 0.14
17 -0.15
18 -0.15
19 -0.15
2 -0.57
20 -0.15
23 0.4
24 0.15
25 0.15
26 0.15
27 0.15
3 -0.55
31 0.15
32 0.15
33 0.15
34 0.15
4 -0.66
5 -0.14
6 0.37
7 -0.14
8 0.1
9 0.09

> <PUBCHEM_EFFECTIVE_ROTOR_COUNT>
3

> <PUBCHEM_PHARMACOPHORE_FEATURES>
6
1 2 acceptor
1 3 donor
1 4 donor
6 3 4 8 9 10 15 rings
6 5 7 11 12 17 18 rings
6 8 9 13 14 19 20 rings

> <PUBCHEM_HEAVY_ATOM_COUNT>
20

> <PUBCHEM_ATOM_DEF_STEREO_COUNT>
0

> <PUBCHEM_ATOM_UDEF_STEREO_COUNT>
0

> <PUBCHEM_BOND_DEF_STEREO_COUNT>
0

> <PUBCHEM_BOND_UDEF_STEREO_COUNT>
0

> <PUBCHEM_ISOTOPIC_ATOM_COUNT>
0

> <PUBCHEM_COMPONENT_COUNT>
1

> <PUBCHEM_CACTVS_TAUTO_COUNT>
3

> <PUBCHEM_CONFORMER_ID>
002D450100000003

> <PUBCHEM_MMFF94_ENERGY>
57.5371

> <PUBCHEM_FEATURE_SELFOVERLAP>
-6.012

> <PUBCHEM_SHAPE_MULTIPOLES>
399.61
14.92
2.04
0.84
4.05
-3.1
-2.38
3.77
-2.25
1.7
-4.27
4.23
4.14
-9.16

> <PUBCHEM_SHAPE_SELFOVERLAP>
858.559

> <PUBCHEM_SHAPE_VOLUME>
221.1

> <PUBCHEM_COORDINATE_TYPE>
2
5
255

$$$$
3242041
  -OEChem-06081017553D

 52 55  0     0  0  0  0  0  0999 V2000
    3.1796    3.3180   -0.9665 S   0  0  0  0  0  0  0  0  0  0  0  0
   -4.1581    1.6432   -1.4207 O   0  0  0  0  0  0  0  0  0  0  0  0
   -6.2994   -2.5603    0.0085 O   0  0  0  0  0  0  0  0  0  0  0  0
    2.0802   -0.8186    1.8374 O   0  0  0  0  0  0  0  0  0  0  0  0
   -4.8217   -0.1648   -0.1239 N   0  0  0  0  0  0  0  0  0  0  0  0
    2.5371    1.1108    0.5788 N   0  0  0  0  0  0  0  0  0  0  0  0
    4.3406    0.9631   -1.0043 N   0  0  0  0  0  0  0  0  0  0  0  0
    0.1807    1.7245    0.4353 C   0  0  0  0  0  0  0  0  0  0  0  0
   -2.6807    0.9698    0.2947 C   0  0  0  0  0  0  0  0  0  0  0  0
   -0.2592    0.2551    0.3885 C   0  0  0  0  0  0  0  0  0  0  0  0
   -0.9110    2.6020    1.0625 C   0  0  0  0  0  0  0  0  0  0  0  0
   -1.5972    0.0901   -0.3289 C   0  0  0  0  0  0  0  0  0  0  0  0
   -2.2495    2.4357    0.3461 C   0  0  0  0  0  0  0  0  0  0  0  0
    1.4950    1.8698    1.2003 C   0  0  0  0  0  0  0  0  0  0  0  0
   -3.9478    0.8547   -0.4956 C   0  0  0  0  0  0  0  0  0  0  0  0
   -4.6018   -1.1176    0.9693 C   0  0  0  0  0  0  0  0  0  0  0  0
   -6.1373   -0.2679   -0.7551 C   0  0  0  0  0  0  0  0  0  0  0  0
   -4.9645   -2.5276    0.5205 C   0  0  0  0  0  0  0  0  0  0  0  0
   -6.4314   -1.7121   -1.1352 C   0  0  0  0  0  0  0  0  0  0  0  0
    2.7462   -0.2461    0.9774 C   0  0  0  0  0  0  0  0  0  0  0  0
    3.3469    1.7280   -0.4288 C   0  0  0  0  0  0  0  0  0  0  0  0
    3.8299   -0.9954    0.3114 C   0  0  0  0  0  0  0  0  0  0  0  0
    4.5968   -0.3662   -0.6618 C   0  0  0  0  0  0  0  0  0  0  0  0
    4.0906   -2.3277    0.6504 C   0  0  0  0  0  0  0  0  0  0  0  0
    5.6277   -1.0568   -1.3039 C   0  0  0  0  0  0  0  0  0  0  0  0
    5.1202   -3.0190    0.0096 C   0  0  0  0  0  0  0  0  0  0  0  0
    5.8881   -2.3846   -0.9661 C   0  0  0  0  0  0  0  0  0  0  0  0
    0.3237    2.0599   -0.6004 H   0  0  0  0  0  0  0  0  0  0  0  0
   -2.8457    0.6856    1.3381 H   0  0  0  0  0  0  0  0  0  0  0  0
   -0.3536   -0.1486    1.4037 H   0  0  0  0  0  0  0  0  0  0  0  0
    0.4618   -0.3579   -0.1599 H   0  0  0  0  0  0  0  0  0  0  0  0
   -0.6108    3.6560    1.0249 H   0  0  0  0  0  0  0  0  0  0  0  0
   -1.0345    2.3448    2.1223 H   0  0  0  0  0  0  0  0  0  0  0  0
   -1.4727    0.3465   -1.3897 H   0  0  0  0  0  0  0  0  0  0  0  0
   -1.8933   -0.9652   -0.3062 H   0  0  0  0  0  0  0  0  0  0  0  0
   -3.0137    3.0375    0.8538 H   0  0  0  0  0  0  0  0  0  0  0  0
   -2.1504    2.8498   -0.6660 H   0  0  0  0  0  0  0  0  0  0  0  0
    1.3563    1.5033    2.2260 H   0  0  0  0  0  0  0  0  0  0  0  0
    1.7688    2.9235    1.3088 H   0  0  0  0  0  0  0  0  0  0  0  0
   -5.2548   -0.8014    1.7910 H   0  0  0  0  0  0  0  0  0  0  0  0
   -3.5763   -1.1302    1.3352 H   0  0  0  0  0  0  0  0  0  0  0  0
   -6.2068    0.3811   -1.6331 H   0  0  0  0  0  0  0  0  0  0  0  0
   -6.8651    0.0839   -0.0144 H   0  0  0  0  0  0  0  0  0  0  0  0
   -4.2736   -2.8913   -0.2495 H   0  0  0  0  0  0  0  0  0  0  0  0
   -4.9135   -3.2170    1.3690 H   0  0  0  0  0  0  0  0  0  0  0  0
   -7.4576   -1.8025   -1.5046 H   0  0  0  0  0  0  0  0  0  0  0  0
   -5.7573   -2.0632   -1.9255 H   0  0  0  0  0  0  0  0  0  0  0  0
    4.9216    1.3902   -1.7203 H   0  0  0  0  0  0  0  0  0  0  0  0
    3.5063   -2.8437    1.4073 H   0  0  0  0  0  0  0  0  0  0  0  0
    6.2325   -0.5725   -2.0662 H   0  0  0  0  0  0  0  0  0  0  0  0
    5.3236   -4.0533    0.2718 H   0  0  0  0  0  0  0  0  0  0  0  0
    6.6886   -2.9245   -1.4631 H   0  0  0  0  0  0  0  0  0  0  0  0
  1 21  2  0  0  0  0
  2 15  2  0  0  0  0
  3 18  1  0  0  0  0
  3 19  1  0  0  0  0
  4 20  2  0  0  0  0
  5 15  1  0  0  0  0
  5 16  1  0  0  0  0
  5 17  1  0  0  0  0
  6 14  1  0  0  0  0
  6 20  1  0  0  0  0
  6 21  1  0  0  0  0
  7 21  1  0  0  0  0
  7 23  1  0  0  0  0
  7 48  1  0  0  0  0
  8 10  1  0  0  0  0
  8 11  1  0  0  0  0
  8 14  1  0  0  0  0
  8 28  1  0  0  0  0
  9 12  1  0  0  0  0
  9 13  1  0  0  0  0
  9 15  1  0  0  0  0
  9 29  1  0  0  0  0
 10 12  1  0  0  0  0
 10 30  1  0  0  0  0
 10 31  1  0  0  0  0
 11 13  1  0  0  0  0
 11 32  1  0  0  0  0
 11 33  1  0  0  0  0
 12 34  1  0  0  0  0
 12 35  1  0  0  0  0
 13 36  1  0  0  0  0
 13 37  1  0  0  0  0
 14 38  1  0  0  0  0
 14 39  1  0  0  0  0
 16 18  1  0  0  0  0
 16 40  1  0  0  0  0
 16 41  1  0  0  0  0
 17 19  1  0  0  0  0
 17 42  1  0  0  0  0
 17 43  1  0  0  0  0
 18 44  1  0  0  0  0
 18 45  1  0  0  0  0
 19 46  1  0  0  0  0
 19 47  1  0  0  0  0
 20 22  1  0  0  0  0
 22 23  1  0  0  0  0
 22 24  2  0  0  0  0
 23 25  2  0  0  0  0
 24 26  1  0  0  0  0
 24 49  1  0  0  0  0
 25 27  1  0  0  0  0
 25 50  1  0  0  0  0
 26 27  2  0  0  0  0
 26 51  1  0  0  0  0
 27 52  1  0  0  0  0
M  END
> <PUBCHEM_COMPOUND_CID>
3242041

> <PUBCHEM_CONFORMER_RMSD>
0.8

> <PUBCHEM_MMFF94_PARTIAL_CHARGES>
27
1 -0.38
14 0.3
15 0.57
16 0.3
17 0.3
18 0.28
19 0.28
2 -0.57
20 0.54
21 0.5
22 0.09
23 0.12
24 -0.15
25 -0.15
26 -0.15
27 -0.15
3 -0.56
4 -0.57
48 0.37
49 0.15
5 -0.66
50 0.15
51 0.15
52 0.15
6 -0.42
7 -0.55
9 0.06

> <PUBCHEM_EFFECTIVE_ROTOR_COUNT>
6.4

> <PUBCHEM_PHARMACOPHORE_FEATURES>
9
1 1 acceptor
1 2 acceptor
1 3 acceptor
1 4 acceptor
1 7 donor
6 22 23 24 25 26 27 rings
6 3 5 16 17 18 19 rings
6 6 7 20 21 22 23 rings
6 8 9 10 11 12 13 rings

> <PUBCHEM_HEAVY_ATOM_COUNT>
27

> <PUBCHEM_ATOM_DEF_STEREO_COUNT>
0

> <PUBCHEM_ATOM_UDEF_STEREO_COUNT>
0

> <PUBCHEM_BOND_DEF_STEREO_COUNT>
0

> <PUBCHEM_BOND_UDEF_STEREO_COUNT>
0

> <PUBCHEM_ISOTOPIC_ATOM_COUNT>
0

> <PUBCHEM_COMPONENT_COUNT>
1

> <PUBCHEM_CACTVS_TAUTO_COUNT>
3

> <PUBCHEM_CONFORMER_ID>
0031783900000001

> <PUBCHEM_MMFF94_ENERGY>
68.8577

> <PUBCHEM_FEATURE_SELFOVERLAP>
-9.005

> <PUBCHEM_SHAPE_MULTIPOLES>
526.95
16.79
3.68
1.27
10.31
-14.58
5.77
-8.74
-7.27
9.21
10.88
-0.56
14.08
-35.25

> <PUBCHEM_SHAPE_SELFOVERLAP>
1115.096

> <PUBCHEM_SHAPE_VOLUME>
295.1

> <PUBCHEM_COORDINATE_TYPE>
2
5
255

$$$$
1960170
  -OEChem-06081017553D

 41 43  0     0  0  0  0  0  0999 V2000
   -0.1846    4.5710   -0.5001 S   0  0  0  0  0  0  0  0  0  0  0  0
   -1.5580   -3.2753    0.8312 O   0  5  0  0  0  0  0  0  0  0  0  0
   -1.3027   -2.4092   -1.1697 O   0  0  0  0  0  0  0  0  0  0  0  0
    1.1127    2.1513   -0.3856 N   0  0  0  0  0  0  0  0  0  0  0  0
    2.2890    2.3601    1.4969 N   0  0  0  0  0  0  0  0  0  0  0  0
    1.5757    3.5097    1.2769 N   0  0  0  0  0  0  0  0  0  0  0  0
    0.5608    1.5808   -1.4628 N   0  0  0  0  0  0  0  0  0  0  0  0
   -1.8132   -2.3974   -0.0256 N   0  3  0  0  0  0  0  0  0  0  0  0
    2.5395    0.2344    0.3141 C   0  0  0  0  0  0  0  0  0  0  0  0
    1.9932    1.5867    0.4871 C   0  0  0  0  0  0  0  0  0  0  0  0
    3.5767   -2.3345   -0.0151 C   0  0  0  0  0  0  0  0  0  0  0  0
    2.8757   -0.5303    1.4310 C   0  0  0  0  0  0  0  0  0  0  0  0
    2.7220   -0.2852   -0.9675 C   0  0  0  0  0  0  0  0  0  0  0  0
    3.3944   -1.8146    1.2665 C   0  0  0  0  0  0  0  0  0  0  0  0
    3.2406   -1.5696   -1.1322 C   0  0  0  0  0  0  0  0  0  0  0  0
    0.8249    3.4014    0.1036 C   0  0  0  0  0  0  0  0  0  0  0  0
   -3.0444   -0.3451   -0.5856 C   0  0  0  0  0  0  0  0  0  0  0  0
    4.1321   -3.7075   -0.1909 C   0  0  0  0  0  0  0  0  0  0  0  0
   -2.7158   -1.3496    0.3129 C   0  0  0  0  0  0  0  0  0  0  0  0
   -2.4707   -0.3151   -1.9426 C   0  0  0  0  0  0  0  0  0  0  0  0
   -3.9272    0.6674   -0.2361 C   0  0  0  0  0  0  0  0  0  0  0  0
   -3.2814   -1.3420    1.5880 C   0  0  0  0  0  0  0  0  0  0  0  0
   -0.5557    0.9796   -1.2124 C   0  0  0  0  0  0  0  0  0  0  0  0
   -1.3208    0.2880   -2.2717 C   0  0  0  0  0  0  0  0  0  0  0  0
   -4.4927    0.6748    1.0389 C   0  0  0  0  0  0  0  0  0  0  0  0
   -4.1700   -0.3299    1.9510 C   0  0  0  0  0  0  0  0  0  0  0  0
    2.7356   -0.1457    2.4378 H   0  0  0  0  0  0  0  0  0  0  0  0
    2.5312    0.2920   -1.8658 H   0  0  0  0  0  0  0  0  0  0  0  0
    3.6497   -2.4020    2.1446 H   0  0  0  0  0  0  0  0  0  0  0  0
    3.3884   -1.9598   -2.1358 H   0  0  0  0  0  0  0  0  0  0  0  0
    4.7079   -3.7848   -1.1194 H   0  0  0  0  0  0  0  0  0  0  0  0
    4.8102   -3.9678    0.6289 H   0  0  0  0  0  0  0  0  0  0  0  0
    3.3195   -4.4402   -0.2199 H   0  0  0  0  0  0  0  0  0  0  0  0
    1.6299    4.2832    1.9270 H   0  0  0  0  0  0  0  0  0  0  0  0
   -3.0535   -0.8154   -2.7116 H   0  0  0  0  0  0  0  0  0  0  0  0
   -4.1887    1.4573   -0.9358 H   0  0  0  0  0  0  0  0  0  0  0  0
   -3.0566   -2.1055    2.3285 H   0  0  0  0  0  0  0  0  0  0  0  0
   -0.9641    0.9678   -0.1880 H   0  0  0  0  0  0  0  0  0  0  0  0
   -0.9403    0.2886   -3.2853 H   0  0  0  0  0  0  0  0  0  0  0  0
   -5.1844    1.4630    1.3217 H   0  0  0  0  0  0  0  0  0  0  0  0
   -4.6105   -0.3234    2.9437 H   0  0  0  0  0  0  0  0  0  0  0  0
  1 16  2  0  0  0  0
  2  8  1  0  0  0  0
  3  8  2  0  0  0  0
  4  7  1  0  0  0  0
  4 10  1  0  0  0  0
  4 16  1  0  0  0  0
  5  6  1  0  0  0  0
  5 10  2  0  0  0  0
  6 16  1  0  0  0  0
  6 34  1  0  0  0  0
  7 23  2  0  0  0  0
  8 19  1  0  0  0  0
  9 10  1  0  0  0  0
  9 12  2  0  0  0  0
  9 13  1  0  0  0  0
 11 14  2  0  0  0  0
 11 15  1  0  0  0  0
 11 18  1  0  0  0  0
 12 14  1  0  0  0  0
 12 27  1  0  0  0  0
 13 15  2  0  0  0  0
 13 28  1  0  0  0  0
 14 29  1  0  0  0  0
 15 30  1  0  0  0  0
 17 19  1  0  0  0  0
 17 20  1  0  0  0  0
 17 21  2  0  0  0  0
 18 31  1  0  0  0  0
 18 32  1  0  0  0  0
 18 33  1  0  0  0  0
 19 22  2  0  0  0  0
 20 24  2  0  0  0  0
 20 35  1  0  0  0  0
 21 25  1  0  0  0  0
 21 36  1  0  0  0  0
 22 26  1  0  0  0  0
 22 37  1  0  0  0  0
 23 24  1  0  0  0  0
 23 38  1  0  0  0  0
 24 39  1  0  0  0  0
 25 26  2  0  0  0  0
 25 40  1  0  0  0  0
 26 41  1  0  0  0  0
M  CHG  2   2  -1   8   1
M  END
> <PUBCHEM_COMPOUND_CID>
1960170

> <PUBCHEM_CONFORMER_RMSD>
0.8

> <PUBCHEM_MMFF94_PARTIAL_CHARGES>
38
1 -0.38
10 0.42
11 -0.14
12 -0.15
13 -0.15
14 -0.15
15 -0.15
16 0.5
17 0.03
18 0.14
19 0.13
2 -0.52
20 -0.18
21 -0.15
22 -0.15
23 0.38
24 -0.14
25 -0.15
26 -0.15
27 0.15
28 0.15
29 0.15
3 -0.52
30 0.15
34 0.37
35 0.15
36 0.15
37 0.15
38 0.06
39 0.15
4 -0.06
40 0.15
41 0.15
5 -0.51
6 -0.37
7 -0.51
8 0.91
9 0.09

> <PUBCHEM_EFFECTIVE_ROTOR_COUNT>
5

> <PUBCHEM_PHARMACOPHORE_FEATURES>
10
1 1 acceptor
1 2 acceptor
1 2 anion
1 3 acceptor
1 6 donor
1 7 acceptor
3 4 5 10 cation
5 4 5 6 10 16 rings
6 17 19 21 22 25 26 rings
6 9 11 12 13 14 15 rings

> <PUBCHEM_HEAVY_ATOM_COUNT>
26

> <PUBCHEM_ATOM_DEF_STEREO_COUNT>
0

> <PUBCHEM_ATOM_UDEF_STEREO_COUNT>
0

> <PUBCHEM_BOND_DEF_STEREO_COUNT>
1

> <PUBCHEM_BOND_UDEF_STEREO_COUNT>
1

> <PUBCHEM_ISOTOPIC_ATOM_COUNT>
0

> <PUBCHEM_COMPONENT_COUNT>
1

> <PUBCHEM_CACTVS_TAUTO_COUNT>
2

> <PUBCHEM_CONFORMER_ID>
001DE8EA00000001

> <PUBCHEM_MMFF94_ENERGY>
108.1946

> <PUBCHEM_FEATURE_SELFOVERLAP>
-10.016

> <PUBCHEM_SHAPE_MULTIPOLES>
502.27
7.99
4.88
1.86
-0.69
-2.47
-2.8
4.7
3.13
1.32
-3.45
4.1
6.27
-18.62

> <PUBCHEM_SHAPE_SELFOVERLAP>
1083.805

> <PUBCHEM_SHAPE_VOLUME>
277.5

> <PUBCHEM_COORDINATE_TYPE>
2
5
255

$$$$
1115254
  -OEChem-06081017553D

 50 53  0     0  0  0  0  0  0999 V2000
   -1.4194    3.5407    0.2235 S   0  0  0  0  0  0  0  0  0  0  0  0
   -0.0875    2.2142   -2.0626 O   0  0  0  0  0  0  0  0  0  0  0  0
    1.6969    3.6173    0.3605 O   0  0  0  0  0  0  0  0  0  0  0  0
    5.3282   -2.9765    1.4699 O   0  5  0  0  0  0  0  0  0  0  0  0
    3.3895   -2.9310    2.4988 O   0  0  0  0  0  0  0  0  0  0  0  0
   -1.5814    1.0287   -0.9036 N   0  0  0  0  0  0  0  0  0  0  0  0
   -2.3435   -0.0848   -0.8651 N   0  0  0  0  0  0  0  0  0  0  0  0
   -3.1780    1.5170    0.5332 N   0  0  0  0  0  0  0  0  0  0  0  0
    1.4454    1.5501    1.4481 N   0  0  0  0  0  0  0  0  0  0  0  0
    4.2603   -2.3916    1.7740 N   0  3  0  0  0  0  0  0  0  0  0  0
   -2.0932    1.9722   -0.0483 C   0  0  0  0  0  0  0  0  0  0  0  0
   -3.2898    0.2662    0.0064 C   0  0  0  0  0  0  0  0  0  0  0  0
   -4.3623   -0.6125    0.3777 C   0  0  0  0  0  0  0  0  0  0  0  0
   -0.4278    1.0965   -1.6873 C   0  0  0  0  0  0  0  0  0  0  0  0
    0.4043   -0.0628   -2.0757 C   0  0  0  0  0  0  0  0  0  0  0  0
   -0.2936    3.2084    1.6088 C   0  0  0  0  0  0  0  0  0  0  0  0
    2.6429    0.8702    1.1203 C   0  0  0  0  0  0  0  0  0  0  0  0
   -4.4429   -1.8890   -0.1791 C   0  0  0  0  0  0  0  0  0  0  0  0
   -5.3243   -0.1900    1.2954 C   0  0  0  0  0  0  0  0  0  0  0  0
    1.0626    2.8271    1.0550 C   0  0  0  0  0  0  0  0  0  0  0  0
    0.4833   -1.1674   -1.2341 C   0  0  0  0  0  0  0  0  0  0  0  0
    1.1006   -0.0394   -3.2795 C   0  0  0  0  0  0  0  0  0  0  0  0
    2.8509   -0.4092    1.6077 C   0  0  0  0  0  0  0  0  0  0  0  0
    3.5803    1.4993    0.3182 C   0  0  0  0  0  0  0  0  0  0  0  0
    4.0308   -1.0791    1.2834 C   0  0  0  0  0  0  0  0  0  0  0  0
   -5.4854   -2.7428    0.1814 C   0  0  0  0  0  0  0  0  0  0  0  0
   -6.3667   -1.0439    1.6559 C   0  0  0  0  0  0  0  0  0  0  0  0
   -6.4472   -2.3203    1.0989 C   0  0  0  0  0  0  0  0  0  0  0  0
    4.7599    0.8296   -0.0061 C   0  0  0  0  0  0  0  0  0  0  0  0
    1.2679   -2.2610   -1.6003 C   0  0  0  0  0  0  0  0  0  0  0  0
    1.8851   -1.1330   -3.6457 C   0  0  0  0  0  0  0  0  0  0  0  0
    4.9852   -0.4596    0.4764 C   0  0  0  0  0  0  0  0  0  0  0  0
    1.9687   -2.2438   -2.8061 C   0  0  0  0  0  0  0  0  0  0  0  0
   -0.7107    2.4479    2.2754 H   0  0  0  0  0  0  0  0  0  0  0  0
   -0.1693    4.1261    2.1928 H   0  0  0  0  0  0  0  0  0  0  0  0
   -3.7118   -2.2528   -0.8967 H   0  0  0  0  0  0  0  0  0  0  0  0
   -5.2893    0.7984    1.7468 H   0  0  0  0  0  0  0  0  0  0  0  0
    0.8020    1.0233    2.0344 H   0  0  0  0  0  0  0  0  0  0  0  0
   -0.0256   -1.1982   -0.2753 H   0  0  0  0  0  0  0  0  0  0  0  0
    1.0438    0.8153   -3.9481 H   0  0  0  0  0  0  0  0  0  0  0  0
    2.0908   -0.8707    2.2334 H   0  0  0  0  0  0  0  0  0  0  0  0
    3.4792    2.4912   -0.0960 H   0  0  0  0  0  0  0  0  0  0  0  0
   -5.5485   -3.7367   -0.2519 H   0  0  0  0  0  0  0  0  0  0  0  0
   -7.1159   -0.7154    2.3704 H   0  0  0  0  0  0  0  0  0  0  0  0
    5.5031    1.3106   -0.6355 H   0  0  0  0  0  0  0  0  0  0  0  0
   -7.2589   -2.9851    1.3798 H   0  0  0  0  0  0  0  0  0  0  0  0
    5.9152   -0.9511    0.2025 H   0  0  0  0  0  0  0  0  0  0  0  0
    1.3404   -3.1221   -0.9425 H   0  0  0  0  0  0  0  0  0  0  0  0
    2.4308   -1.1201   -4.5846 H   0  0  0  0  0  0  0  0  0  0  0  0
    2.5816   -3.0943   -3.0901 H   0  0  0  0  0  0  0  0  0  0  0  0
  1 11  1  0  0  0  0
  1 16  1  0  0  0  0
  2 14  2  0  0  0  0
  3 20  2  0  0  0  0
  4 10  1  0  0  0  0
  5 10  2  0  0  0  0
  6  7  1  0  0  0  0
  6 11  1  0  0  0  0
  6 14  1  0  0  0  0
  7 12  2  0  0  0  0
  8 11  2  0  0  0  0
  8 12  1  0  0  0  0
  9 17  1  0  0  0  0
  9 20  1  0  0  0  0
  9 38  1  0  0  0  0
 10 25  1  0  0  0  0
 12 13  1  0  0  0  0
 13 18  2  0  0  0  0
 13 19  1  0  0  0  0
 14 15  1  0  0  0  0
 15 21  2  0  0  0  0
 15 22  1  0  0  0  0
 16 20  1  0  0  0  0
 16 34  1  0  0  0  0
 16 35  1  0  0  0  0
 17 23  2  0  0  0  0
 17 24  1  0  0  0  0
 18 26  1  0  0  0  0
 18 36  1  0  0  0  0
 19 27  2  0  0  0  0
 19 37  1  0  0  0  0
 21 30  1  0  0  0  0
 21 39  1  0  0  0  0
 22 31  2  0  0  0  0
 22 40  1  0  0  0  0
 23 25  1  0  0  0  0
 23 41  1  0  0  0  0
 24 29  2  0  0  0  0
 24 42  1  0  0  0  0
 25 32  2  0  0  0  0
 26 28  2  0  0  0  0
 26 43  1  0  0  0  0
 27 28  1  0  0  0  0
 27 44  1  0  0  0  0
 28 46  1  0  0  0  0
 29 32  1  0  0  0  0
 29 45  1  0  0  0  0
 30 33  2  0  0  0  0
 30 48  1  0  0  0  0
 31 33  1  0  0  0  0
 31 49  1  0  0  0  0
 32 47  1  0  0  0  0
 33 50  1  0  0  0  0
M  CHG  2   4  -1  10   1
M  END
> <PUBCHEM_COMPOUND_CID>
1115254

> <PUBCHEM_CONFORMER_RMSD>
1

> <PUBCHEM_MMFF94_PARTIAL_CHARGES>
48
1 -0.29
10 0.91
11 0.24
12 0.46
13 0.05
14 0.49
15 0.09
16 0.29
17 0.12
18 -0.15
19 -0.15
2 -0.57
20 0.57
21 -0.15
22 -0.15
23 -0.15
24 -0.15
25 0.13
26 -0.15
27 -0.15
28 -0.15
29 -0.15
3 -0.57
30 -0.15
31 -0.15
32 -0.15
33 -0.15
36 0.15
37 0.15
38 0.37
39 0.15
4 -0.52
40 0.15
41 0.15
42 0.15
43 0.15
44 0.15
45 0.15
46 0.15
47 0.15
48 0.15
49 0.15
5 -0.52
50 0.15
6 0.56
7 -0.71
8 -0.57
9 -0.55

> <PUBCHEM_EFFECTIVE_ROTOR_COUNT>
9

> <PUBCHEM_PHARMACOPHORE_FEATURES>
11
1 2 acceptor
1 3 acceptor
1 4 acceptor
1 4 anion
1 5 acceptor
1 9 donor
3 7 8 12 cation
5 6 7 8 11 12 rings
6 13 18 19 26 27 28 rings
6 15 21 22 30 31 33 rings
6 17 23 24 25 29 32 rings

> <PUBCHEM_HEAVY_ATOM_COUNT>
33

> <PUBCHEM_ATOM_DEF_STEREO_COUNT>
0

> <PUBCHEM_ATOM_UDEF_STEREO_COUNT>
0

> <PUBCHEM_BOND_DEF_STEREO_COUNT>
0

> <PUBCHEM_BOND_UDEF_STEREO_COUNT>
0

> <PUBCHEM_ISOTOPIC_ATOM_COUNT>
0

> <PUBCHEM_COMPONENT_COUNT>
1

> <PUBCHEM_CACTVS_TAUTO_COUNT>
2

> <PUBCHEM_CONFORMER_ID>
0011047600000002

> <PUBCHEM_MMFF94_ENERGY>
94.8762

> <PUBCHEM_FEATURE_SELFOVERLAP>
-11.016

> <PUBCHEM_SHAPE_MULTIPOLES>
634.59
12.28
4.13
2.93
10.61
-9.83
-8.77
17.4
-15.82
-0.78
-17.86
0.49
13.83
-24.56

> <PUBCHEM_SHAPE_SELFOVERLAP>
1380.944

> <PUBCHEM_SHAPE_VOLUME>
346.7

> <PUBCHEM_COORDINATE_TYPE>
2
5
255

$$$$
1370112
  -OEChem-06081017553D

 52 55  0     0  0  0  0  0  0999 V2000
   -0.6989    3.7968    1.1526 F   0  0  0  0  0  0  0  0  0  0  0  0
    1.2815    3.0708    1.7037 F   0  0  0  0  0  0  0  0  0  0  0  0
    0.9207    3.8331   -0.3064 F   0  0  0  0  0  0  0  0  0  0  0  0
    4.6896    0.3001   -2.2671 O   0  0  0  0  0  0  0  0  0  0  0  0
   -6.3071    0.5989   -0.3752 O   0  0  0  0  0  0  0  0  0  0  0  0
   -6.7442   -2.1224   -0.0166 O   0  0  0  0  0  0  0  0  0  0  0  0
    5.1098   -0.4792   -0.1197 N   0  0  0  0  0  0  0  0  0  0  0  0
    0.9995    0.8984   -0.2401 N   0  0  0  0  0  0  0  0  0  0  0  0
    2.3280    1.1652   -0.3780 N   0  0  0  0  0  0  0  0  0  0  0  0
   -0.5633   -0.8922   -0.6177 N   0  0  0  0  0  0  0  0  0  0  0  0
    6.6475   -2.3657    1.4375 C   0  0  0  0  0  0  0  0  0  0  0  0
    7.0601   -1.9726    0.0190 C   0  0  0  0  0  0  0  0  0  0  0  0
    5.1401   -2.2061    1.6366 C   0  0  0  0  0  0  0  0  0  0  0  0
    6.5538   -0.5779   -0.3417 C   0  0  0  0  0  0  0  0  0  0  0  0
    4.6809   -0.8034    1.2487 C   0  0  0  0  0  0  0  0  0  0  0  0
    4.2769   -0.0274   -1.1551 C   0  0  0  0  0  0  0  0  0  0  0  0
    2.8473    0.0452   -0.8774 C   0  0  0  0  0  0  0  0  0  0  0  0
    1.8902   -0.9574   -1.0726 C   0  0  0  0  0  0  0  0  0  0  0  0
    0.7030   -0.3975   -0.6593 C   0  0  0  0  0  0  0  0  0  0  0  0
   -0.0015    1.7455    0.2513 C   0  0  0  0  0  0  0  0  0  0  0  0
   -1.5039   -0.1051   -0.1735 C   0  0  0  0  0  0  0  0  0  0  0  0
   -1.2655    1.2968    0.3094 C   0  0  0  0  0  0  0  0  0  0  0  0
   -2.8748   -0.6293   -0.1334 C   0  0  0  0  0  0  0  0  0  0  0  0
    0.3790    3.1232    0.7036 C   0  0  0  0  0  0  0  0  0  0  0  0
   -3.9552    0.2394   -0.2749 C   0  0  0  0  0  0  0  0  0  0  0  0
   -3.0917   -1.9938    0.0470 C   0  0  0  0  0  0  0  0  0  0  0  0
   -5.2577   -0.2584   -0.2361 C   0  0  0  0  0  0  0  0  0  0  0  0
   -4.3941   -2.4916    0.0863 C   0  0  0  0  0  0  0  0  0  0  0  0
   -5.4771   -1.6240   -0.0554 C   0  0  0  0  0  0  0  0  0  0  0  0
   -5.9968    1.9792   -0.5559 C   0  0  0  0  0  0  0  0  0  0  0  0
   -7.3760   -2.1884    1.2605 C   0  0  0  0  0  0  0  0  0  0  0  0
    6.9414   -3.4021    1.6368 H   0  0  0  0  0  0  0  0  0  0  0  0
    7.1798   -1.7350    2.1601 H   0  0  0  0  0  0  0  0  0  0  0  0
    8.1508   -2.0096   -0.0756 H   0  0  0  0  0  0  0  0  0  0  0  0
    6.6475   -2.7028   -0.6885 H   0  0  0  0  0  0  0  0  0  0  0  0
    4.6154   -2.9456    1.0189 H   0  0  0  0  0  0  0  0  0  0  0  0
    4.8789   -2.4096    2.6808 H   0  0  0  0  0  0  0  0  0  0  0  0
    7.0356    0.1811    0.2859 H   0  0  0  0  0  0  0  0  0  0  0  0
    6.8065   -0.3518   -1.3823 H   0  0  0  0  0  0  0  0  0  0  0  0
    3.5975   -0.7315    1.3633 H   0  0  0  0  0  0  0  0  0  0  0  0
    5.1271   -0.0551    1.9147 H   0  0  0  0  0  0  0  0  0  0  0  0
    2.0313   -1.9563   -1.4601 H   0  0  0  0  0  0  0  0  0  0  0  0
   -2.0689    1.8955    0.7163 H   0  0  0  0  0  0  0  0  0  0  0  0
   -3.7513    1.2865   -0.4585 H   0  0  0  0  0  0  0  0  0  0  0  0
   -2.2658   -2.6897    0.1686 H   0  0  0  0  0  0  0  0  0  0  0  0
   -4.5579   -3.5564    0.2285 H   0  0  0  0  0  0  0  0  0  0  0  0
   -5.4569    2.1526   -1.4931 H   0  0  0  0  0  0  0  0  0  0  0  0
   -5.4747    2.3947    0.3127 H   0  0  0  0  0  0  0  0  0  0  0  0
   -6.9490    2.5141   -0.6370 H   0  0  0  0  0  0  0  0  0  0  0  0
   -7.4619   -1.1897    1.7002 H   0  0  0  0  0  0  0  0  0  0  0  0
   -6.8162   -2.8478    1.9313 H   0  0  0  0  0  0  0  0  0  0  0  0
   -8.3805   -2.5984    1.1250 H   0  0  0  0  0  0  0  0  0  0  0  0
  1 24  1  0  0  0  0
  2 24  1  0  0  0  0
  3 24  1  0  0  0  0
  4 16  2  0  0  0  0
  5 27  1  0  0  0  0
  5 30  1  0  0  0  0
  6 29  1  0  0  0  0
  6 31  1  0  0  0  0
  7 14  1  0  0  0  0
  7 15  1  0  0  0  0
  7 16  1  0  0  0  0
  8  9  1  0  0  0  0
  8 19  1  0  0  0  0
  8 20  1  0  0  0  0
  9 17  2  0  0  0  0
 10 19  1  0  0  0  0
 10 21  2  0  0  0  0
 11 12  1  0  0  0  0
 11 13  1  0  0  0  0
 11 32  1  0  0  0  0
 11 33  1  0  0  0  0
 12 14  1  0  0  0  0
 12 34  1  0  0  0  0
 12 35  1  0  0  0  0
 13 15  1  0  0  0  0
 13 36  1  0  0  0  0
 13 37  1  0  0  0  0
 14 38  1  0  0  0  0
 14 39  1  0  0  0  0
 15 40  1  0  0  0  0
 15 41  1  0  0  0  0
 16 17  1  0  0  0  0
 17 18  1  0  0  0  0
 18 19  2  0  0  0  0
 18 42  1  0  0  0  0
 20 22  2  0  0  0  0
 20 24  1  0  0  0  0
 21 22  1  0  0  0  0
 21 23  1  0  0  0  0
 22 43  1  0  0  0  0
 23 25  2  0  0  0  0
 23 26  1  0  0  0  0
 25 27  1  0  0  0  0
 25 44  1  0  0  0  0
 26 28  2  0  0  0  0
 26 45  1  0  0  0  0
 27 29  2  0  0  0  0
 28 29  1  0  0  0  0
 28 46  1  0  0  0  0
 30 47  1  0  0  0  0
 30 48  1  0  0  0  0
 30 49  1  0  0  0  0
 31 50  1  0  0  0  0
 31 51  1  0  0  0  0
 31 52  1  0  0  0  0
M  END
> <PUBCHEM_COMPOUND_CID>
1370112

> <PUBCHEM_CONFORMER_RMSD>
1

> <PUBCHEM_MMFF94_PARTIAL_CHARGES>
33
1 -0.34
10 -0.58
14 0.3
15 0.3
16 0.72
17 0.2
18 -0.15
19 -0.03
2 -0.34
20 -0.17
21 0.35
22 -0.14
23 0.09
24 1.16
25 -0.15
26 -0.15
27 0.08
28 -0.15
29 0.08
3 -0.34
30 0.28
31 0.28
4 -0.57
42 0.15
43 0.15
44 0.15
45 0.15
46 0.15
5 -0.36
6 -0.36
7 -0.66
8 0.6
9 -0.71

> <PUBCHEM_EFFECTIVE_ROTOR_COUNT>
7.2

> <PUBCHEM_PHARMACOPHORE_FEATURES>
9
1 10 acceptor
1 4 acceptor
1 5 acceptor
1 6 acceptor
1 9 acceptor
5 8 9 17 18 19 rings
6 23 25 26 27 28 29 rings
6 7 11 12 13 14 15 rings
6 8 10 19 20 21 22 rings

> <PUBCHEM_HEAVY_ATOM_COUNT>
31

> <PUBCHEM_ATOM_DEF_STEREO_COUNT>
0

> <PUBCHEM_ATOM_UDEF_STEREO_COUNT>
0

> <PUBCHEM_BOND_DEF_STEREO_COUNT>
0

> <PUBCHEM_BOND_UDEF_STEREO_COUNT>
0

> <PUBCHEM_ISOTOPIC_ATOM_COUNT>
0

> <PUBCHEM_COMPONENT_COUNT>
1

> <PUBCHEM_CACTVS_TAUTO_COUNT>
1

> <PUBCHEM_CONFORMER_ID>
0014E80000000001

> <PUBCHEM_MMFF94_ENERGY>
91.5054

> <PUBCHEM_FEATURE_SELFOVERLAP>
-9.026

> <PUBCHEM_SHAPE_MULTIPOLES>
578.61
19.23
3.55
1.29
1.37
-13.4
-3.72
5.36
-6.12
8.39
-0.51
-2.29
-1.83
-41

> <PUBCHEM_SHAPE_SELFOVERLAP>
1259.521

> <PUBCHEM_SHAPE_VOLUME>
317.3

> <PUBCHEM_COORDINATE_TYPE>
2
5
255

$$$$
4142326
  -OEChem-06081017553D

 46 48  0     1  0  0  0  0  0999 V2000
   -2.8756    2.4992   -0.6288 Br  0  0  0  0  0  0  0  0  0  0  0  0
    3.8392   -2.4153   -0.7990 O   0  0  0  0  0  0  0  0  0  0  0  0
   -2.8785   -0.3317    0.6859 O   0  0  0  0  0  0  0  0  0  0  0  0
    3.9827   -0.3099    0.2072 N   0  0  0  0  0  0  0  0  0  0  0  0
    3.7317    2.1435    0.1317 C   0  0  1  0  0  0  0  0  0  0  0  0
    5.2600    2.2716    0.0234 C   0  0  0  0  0  0  0  0  0  0  0  0
    3.3556    0.8472    0.8612 C   0  0  0  0  0  0  0  0  0  0  0  0
    5.8756    1.0234   -0.6117 C   0  0  0  0  0  0  0  0  0  0  0  0
    5.4409   -0.2438    0.1195 C   0  0  0  0  0  0  0  0  0  0  0  0
    3.1342    3.3568    0.8387 C   0  0  0  0  0  0  0  0  0  0  0  0
    3.3107   -1.4328   -0.2806 C   0  0  0  0  0  0  0  0  0  0  0  0
    1.8453   -1.4577   -0.1886 C   0  0  0  0  0  0  0  0  0  0  0  0
    1.0765   -0.9506   -1.2331 C   0  0  0  0  0  0  0  0  0  0  0  0
    1.2314   -1.9899    0.9425 C   0  0  0  0  0  0  0  0  0  0  0  0
   -0.9340   -1.5082   -0.0146 C   0  0  0  0  0  0  0  0  0  0  0  0
   -0.3155   -0.9759   -1.1459 C   0  0  0  0  0  0  0  0  0  0  0  0
   -0.1605   -2.0152    1.0295 C   0  0  0  0  0  0  0  0  0  0  0  0
   -2.4223   -1.5341    0.0783 C   0  0  0  0  0  0  0  0  0  0  0  0
   -4.1320    0.0984    0.3381 C   0  0  0  0  0  0  0  0  0  0  0  0
   -4.3282    1.3385   -0.2613 C   0  0  0  0  0  0  0  0  0  0  0  0
   -5.2127   -0.7387    0.5988 C   0  0  0  0  0  0  0  0  0  0  0  0
   -5.6176    1.7458   -0.6034 C   0  0  0  0  0  0  0  0  0  0  0  0
   -6.5022   -0.3314    0.2567 C   0  0  0  0  0  0  0  0  0  0  0  0
   -6.7046    0.9108   -0.3444 C   0  0  0  0  0  0  0  0  0  0  0  0
    3.3195    2.1014   -0.8856 H   0  0  0  0  0  0  0  0  0  0  0  0
    5.6945    2.4205    1.0202 H   0  0  0  0  0  0  0  0  0  0  0  0
    5.5224    3.1522   -0.5746 H   0  0  0  0  0  0  0  0  0  0  0  0
    3.7131    0.8642    1.8983 H   0  0  0  0  0  0  0  0  0  0  0  0
    2.2686    0.7469    0.8991 H   0  0  0  0  0  0  0  0  0  0  0  0
    5.5611    0.9640   -1.6611 H   0  0  0  0  0  0  0  0  0  0  0  0
    6.9682    1.1021   -0.6043 H   0  0  0  0  0  0  0  0  0  0  0  0
    5.8407   -1.1237   -0.3942 H   0  0  0  0  0  0  0  0  0  0  0  0
    5.8340   -0.2526    1.1430 H   0  0  0  0  0  0  0  0  0  0  0  0
    3.5106    3.4466    1.8632 H   0  0  0  0  0  0  0  0  0  0  0  0
    3.3834    4.2794    0.3040 H   0  0  0  0  0  0  0  0  0  0  0  0
    2.0427    3.2804    0.8844 H   0  0  0  0  0  0  0  0  0  0  0  0
    1.5491   -0.5324   -2.1179 H   0  0  0  0  0  0  0  0  0  0  0  0
    1.8254   -2.3866    1.7617 H   0  0  0  0  0  0  0  0  0  0  0  0
   -0.9071   -0.5752   -1.9648 H   0  0  0  0  0  0  0  0  0  0  0  0
   -0.6304   -2.4304    1.9172 H   0  0  0  0  0  0  0  0  0  0  0  0
   -2.8528   -1.6623   -0.9245 H   0  0  0  0  0  0  0  0  0  0  0  0
   -2.7490   -2.3902    0.6816 H   0  0  0  0  0  0  0  0  0  0  0  0
   -5.0728   -1.7049    1.0755 H   0  0  0  0  0  0  0  0  0  0  0  0
   -5.7947    2.7103   -1.0725 H   0  0  0  0  0  0  0  0  0  0  0  0
   -7.3489   -0.9804    0.4604 H   0  0  0  0  0  0  0  0  0  0  0  0
   -7.7088    1.2281   -0.6102 H   0  0  0  0  0  0  0  0  0  0  0  0
  1 20  1  0  0  0  0
  2 11  2  0  0  0  0
  3 18  1  0  0  0  0
  3 19  1  0  0  0  0
  4  7  1  0  0  0  0
  4  9  1  0  0  0  0
  4 11  1  0  0  0  0
  5  6  1  0  0  0  0
  5  7  1  0  0  0  0
  5 10  1  0  0  0  0
  5 25  1  0  0  0  0
  6  8  1  0  0  0  0
  6 26  1  0  0  0  0
  6 27  1  0  0  0  0
  7 28  1  0  0  0  0
  7 29  1  0  0  0  0
  8  9  1  0  0  0  0
  8 30  1  0  0  0  0
  8 31  1  0  0  0  0
  9 32  1  0  0  0  0
  9 33  1  0  0  0  0
 10 34  1  0  0  0  0
 10 35  1  0  0  0  0
 10 36  1  0  0  0  0
 11 12  1  0  0  0  0
 12 13  2  0  0  0  0
 12 14  1  0  0  0  0
 13 16  1  0  0  0  0
 13 37  1  0  0  0  0
 14 17  2  0  0  0  0
 14 38  1  0  0  0  0
 15 16  2  0  0  0  0
 15 17  1  0  0  0  0
 15 18  1  0  0  0  0
 16 39  1  0  0  0  0
 17 40  1  0  0  0  0
 18 41  1  0  0  0  0
 18 42  1  0  0  0  0
 19 20  1  0  0  0  0
 19 21  2  0  0  0  0
 20 22  2  0  0  0  0
 21 23  1  0  0  0  0
 21 43  1  0  0  0  0
 22 24  1  0  0  0  0
 22 44  1  0  0  0  0
 23 24  2  0  0  0  0
 23 45  1  0  0  0  0
 24 46  1  0  0  0  0
M  END
> <PUBCHEM_COMPOUND_CID>
4142326

> <PUBCHEM_CONFORMER_RMSD>
1

> <PUBCHEM_MMFF94_PARTIAL_CHARGES>
28
1 -0.11
11 0.54
12 0.09
13 -0.15
14 -0.15
15 -0.14
16 -0.15
17 -0.15
18 0.42
19 0.08
2 -0.57
20 0.11
21 -0.15
22 -0.15
23 -0.15
24 -0.15
3 -0.36
37 0.15
38 0.15
39 0.15
4 -0.66
40 0.15
43 0.15
44 0.15
45 0.15
46 0.15
7 0.3
9 0.3

> <PUBCHEM_EFFECTIVE_ROTOR_COUNT>
6.2

> <PUBCHEM_PHARMACOPHORE_FEATURES>
6
1 1 hydrophobe
1 2 acceptor
1 3 acceptor
6 12 13 14 15 16 17 rings
6 19 20 21 22 23 24 rings
6 4 5 6 7 8 9 rings

> <PUBCHEM_HEAVY_ATOM_COUNT>
24

> <PUBCHEM_ATOM_DEF_STEREO_COUNT>
0

> <PUBCHEM_ATOM_UDEF_STEREO_COUNT>
1

> <PUBCHEM_BOND_DEF_STEREO_COUNT>
0

> <PUBCHEM_BOND_UDEF_STEREO_COUNT>
0

> <PUBCHEM_ISOTOPIC_ATOM_COUNT>
0

> <PUBCHEM_COMPONENT_COUNT>
1

> <PUBCHEM_CACTVS_TAUTO_COUNT>
1

> <PUBCHEM_CONFORMER_ID>
003F34F600000001

> <PUBCHEM_MMFF94_ENERGY>
67.3893

> <PUBCHEM_FEATURE_SELFOVERLAP>
-6

> <PUBCHEM_SHAPE_MULTIPOLES>
483.13
16.43
3.17
1
7.96
9.53
0.14
-0.08
-5.44
-6.21
1.06
5.5
14.19
17.88

> <PUBCHEM_SHAPE_SELFOVERLAP>
1011.703

> <PUBCHEM_SHAPE_VOLUME>
279

> <PUBCHEM_COORDINATE_TYPE>
2
5
255

$$$$
2953401
  -OEChem-06081017553D

 51 53  0     0  0  0  0  0  0999 V2000
    2.2787    3.3474   -1.0169 S   0  0  0  0  0  0  0  0  0  0  0  0
   -3.7598   -1.2814   -1.7161 O   0  0  0  0  0  0  0  0  0  0  0  0
    2.3987   -0.8766    1.8684 O   0  0  0  0  0  0  0  0  0  0  0  0
   -7.3583    0.3923    0.3703 O   0  0  0  0  0  0  0  0  0  0  0  0
    2.2888    1.0784    0.5716 N   0  0  0  0  0  0  0  0  0  0  0  0
   -4.9724   -1.2010    0.2693 N   0  0  0  0  0  0  0  0  0  0  0  0
    4.0705    1.4280   -1.0044 N   0  0  0  0  0  0  0  0  0  0  0  0
   -0.1432    0.9823    0.4110 C   0  0  0  0  0  0  0  0  0  0  0  0
   -2.6636   -0.5693    0.2800 C   0  0  0  0  0  0  0  0  0  0  0  0
   -1.4467    1.5187    1.0180 C   0  0  0  0  0  0  0  0  0  0  0  0
   -0.1397   -0.5522    0.3933 C   0  0  0  0  0  0  0  0  0  0  0  0
   -2.6745    0.9593    0.3024 C   0  0  0  0  0  0  0  0  0  0  0  0
   -1.3673   -1.1102   -0.3234 C   0  0  0  0  0  0  0  0  0  0  0  0
    1.0671    1.5155    1.1755 C   0  0  0  0  0  0  0  0  0  0  0  0
   -3.8372   -1.0605   -0.5103 C   0  0  0  0  0  0  0  0  0  0  0  0
    2.8777   -0.1526    0.9983 C   0  0  0  0  0  0  0  0  0  0  0  0
    2.8938    1.8839   -0.4466 C   0  0  0  0  0  0  0  0  0  0  0  0
    4.1368   -0.5693    0.3499 C   0  0  0  0  0  0  0  0  0  0  0  0
   -6.2447   -1.6384   -0.2582 C   0  0  0  0  0  0  0  0  0  0  0  0
    4.6969    0.2362   -0.6343 C   0  0  0  0  0  0  0  0  0  0  0  0
   -7.0856   -0.4662   -0.7298 C   0  0  0  0  0  0  0  0  0  0  0  0
    4.7685   -1.7628    0.7164 C   0  0  0  0  0  0  0  0  0  0  0  0
    5.8883   -0.1393   -1.2603 C   0  0  0  0  0  0  0  0  0  0  0  0
    5.9588   -2.1393    0.0919 C   0  0  0  0  0  0  0  0  0  0  0  0
    6.5184   -1.3286   -0.8949 C   0  0  0  0  0  0  0  0  0  0  0  0
   -8.1500    1.5055   -0.0210 C   0  0  0  0  0  0  0  0  0  0  0  0
   -0.0952    1.3252   -0.6309 H   0  0  0  0  0  0  0  0  0  0  0  0
   -2.7396   -0.9424    1.3103 H   0  0  0  0  0  0  0  0  0  0  0  0
   -1.4992    1.2563    2.0824 H   0  0  0  0  0  0  0  0  0  0  0  0
   -1.4636    2.6136    0.9594 H   0  0  0  0  0  0  0  0  0  0  0  0
    0.7322   -0.9416   -0.1404 H   0  0  0  0  0  0  0  0  0  0  0  0
   -0.1214   -0.9460    1.4166 H   0  0  0  0  0  0  0  0  0  0  0  0
   -2.7075    1.3516   -0.7227 H   0  0  0  0  0  0  0  0  0  0  0  0
   -3.5813    1.3251    0.7997 H   0  0  0  0  0  0  0  0  0  0  0  0
   -1.3569   -2.2059   -0.2706 H   0  0  0  0  0  0  0  0  0  0  0  0
   -1.2986   -0.8508   -1.3881 H   0  0  0  0  0  0  0  0  0  0  0  0
    1.0241    2.6053    1.2630 H   0  0  0  0  0  0  0  0  0  0  0  0
    1.0321    1.1442    2.2082 H   0  0  0  0  0  0  0  0  0  0  0  0
   -4.9314   -0.9680    1.2572 H   0  0  0  0  0  0  0  0  0  0  0  0
   -6.0724   -2.3377   -1.0827 H   0  0  0  0  0  0  0  0  0  0  0  0
   -6.7519   -2.1688    0.5545 H   0  0  0  0  0  0  0  0  0  0  0  0
    4.5090    1.9911   -1.7279 H   0  0  0  0  0  0  0  0  0  0  0  0
   -6.5541    0.0950   -1.5076 H   0  0  0  0  0  0  0  0  0  0  0  0
   -8.0291   -0.8384   -1.1453 H   0  0  0  0  0  0  0  0  0  0  0  0
    4.3522   -2.4112    1.4825 H   0  0  0  0  0  0  0  0  0  0  0  0
    6.3335    0.4845   -2.0310 H   0  0  0  0  0  0  0  0  0  0  0  0
    6.4502   -3.0655    0.3755 H   0  0  0  0  0  0  0  0  0  0  0  0
    7.4447   -1.6235   -1.3793 H   0  0  0  0  0  0  0  0  0  0  0  0
   -7.6246    2.1054   -0.7704 H   0  0  0  0  0  0  0  0  0  0  0  0
   -9.1150    1.1712   -0.4140 H   0  0  0  0  0  0  0  0  0  0  0  0
   -8.3289    2.1274    0.8603 H   0  0  0  0  0  0  0  0  0  0  0  0
  1 17  2  0  0  0  0
  2 15  2  0  0  0  0
  3 16  2  0  0  0  0
  4 21  1  0  0  0  0
  4 26  1  0  0  0  0
  5 14  1  0  0  0  0
  5 16  1  0  0  0  0
  5 17  1  0  0  0  0
  6 15  1  0  0  0  0
  6 19  1  0  0  0  0
  6 39  1  0  0  0  0
  7 17  1  0  0  0  0
  7 20  1  0  0  0  0
  7 42  1  0  0  0  0
  8 10  1  0  0  0  0
  8 11  1  0  0  0  0
  8 14  1  0  0  0  0
  8 27  1  0  0  0  0
  9 12  1  0  0  0  0
  9 13  1  0  0  0  0
  9 15  1  0  0  0  0
  9 28  1  0  0  0  0
 10 12  1  0  0  0  0
 10 29  1  0  0  0  0
 10 30  1  0  0  0  0
 11 13  1  0  0  0  0
 11 31  1  0  0  0  0
 11 32  1  0  0  0  0
 12 33  1  0  0  0  0
 12 34  1  0  0  0  0
 13 35  1  0  0  0  0
 13 36  1  0  0  0  0
 14 37  1  0  0  0  0
 14 38  1  0  0  0  0
 16 18  1  0  0  0  0
 18 20  1  0  0  0  0
 18 22  2  0  0  0  0
 19 21  1  0  0  0  0
 19 40  1  0  0  0  0
 19 41  1  0  0  0  0
 20 23  2  0  0  0  0
 21 43  1  0  0  0  0
 21 44  1  0  0  0  0
 22 24  1  0  0  0  0
 22 45  1  0  0  0  0
 23 25  1  0  0  0  0
 23 46  1  0  0  0  0
 24 25  2  0  0  0  0
 24 47  1  0  0  0  0
 25 48  1  0  0  0  0
 26 49  1  0  0  0  0
 26 50  1  0  0  0  0
 26 51  1  0  0  0  0
M  END
> <PUBCHEM_COMPOUND_CID>
2953401

> <PUBCHEM_CONFORMER_RMSD>
1

> <PUBCHEM_MMFF94_PARTIAL_CHARGES>
27
1 -0.38
14 0.3
15 0.57
16 0.54
17 0.5
18 0.09
19 0.3
2 -0.57
20 0.12
21 0.28
22 -0.15
23 -0.15
24 -0.15
25 -0.15
26 0.28
3 -0.57
39 0.37
4 -0.56
42 0.37
45 0.15
46 0.15
47 0.15
48 0.15
5 -0.42
6 -0.73
7 -0.55
9 0.06

> <PUBCHEM_EFFECTIVE_ROTOR_COUNT>
8.2

> <PUBCHEM_PHARMACOPHORE_FEATURES>
9
1 1 acceptor
1 2 acceptor
1 3 acceptor
1 4 acceptor
1 6 donor
1 7 donor
6 18 20 22 23 24 25 rings
6 5 7 16 17 18 20 rings
6 8 9 10 11 12 13 rings

> <PUBCHEM_HEAVY_ATOM_COUNT>
26

> <PUBCHEM_ATOM_DEF_STEREO_COUNT>
0

> <PUBCHEM_ATOM_UDEF_STEREO_COUNT>
0

> <PUBCHEM_BOND_DEF_STEREO_COUNT>
0

> <PUBCHEM_BOND_UDEF_STEREO_COUNT>
0

> <PUBCHEM_ISOTOPIC_ATOM_COUNT>
0

> <PUBCHEM_COMPONENT_COUNT>
1

> <PUBCHEM_CACTVS_TAUTO_COUNT>
6

> <PUBCHEM_CONFORMER_ID>
002D10B900000001

> <PUBCHEM_MMFF94_ENERGY>
59.1446

> <PUBCHEM_FEATURE_SELFOVERLAP>
-9.005

> <PUBCHEM_SHAPE_MULTIPOLES>
506.37
19.91
2.5
1.23
25.58
-5.09
5.32
-8.01
-17.88
3.23
8.64
-5.09
26.37
-16.76

> <PUBCHEM_SHAPE_SELFOVERLAP>
1052.891

> <PUBCHEM_SHAPE_VOLUME>
288.7

> <PUBCHEM_COORDINATE_TYPE>
2
5
255

$$$$
2890
  -OEChem-06081017553D

 35 37  0     0  0  0  0  0  0999 V2000
    2.6918   -1.2014   -1.2931 O   0  0  0  0  0  0  0  0  0  0  0  0
   -1.5991    2.1159   -1.3287 O   0  0  0  0  0  0  0  0  0  0  0  0
    3.8887    0.1263    0.9687 O   0  0  0  0  0  0  0  0  0  0  0  0
   -2.4392    0.4565    0.0882 N   0  0  0  0  0  0  0  0  0  0  0  0
   -4.1839   -1.8140    0.4561 C   0  0  0  0  0  0  0  0  0  0  0  0
   -4.5028   -0.7177   -0.5609 C   0  0  0  0  0  0  0  0  0  0  0  0
   -2.6790   -1.9113    0.7074 C   0  0  0  0  0  0  0  0  0  0  0  0
   -3.8806    0.6133   -0.1477 C   0  0  0  0  0  0  0  0  0  0  0  0
   -2.0903   -0.5546    1.0866 C   0  0  0  0  0  0  0  0  0  0  0  0
   -1.4292    1.2105   -0.5136 C   0  0  0  0  0  0  0  0  0  0  0  0
   -0.0372    0.9214   -0.1468 C   0  0  0  0  0  0  0  0  0  0  0  0
    0.6938   -0.0184   -0.8739 C   0  0  0  0  0  0  0  0  0  0  0  0
    2.0193   -0.2839   -0.5290 C   0  0  0  0  0  0  0  0  0  0  0  0
    0.5543    1.5920    0.9242 C   0  0  0  0  0  0  0  0  0  0  0  0
    2.6029    0.3677    0.5605 C   0  0  0  0  0  0  0  0  0  0  0  0
    1.8754    1.3171    1.2784 C   0  0  0  0  0  0  0  0  0  0  0  0
    4.1049   -1.1395   -1.0803 C   0  0  0  0  0  0  0  0  0  0  0  0
    4.4102   -1.0798    0.4038 C   0  0  0  0  0  0  0  0  0  0  0  0
   -4.6983   -1.5965    1.4001 H   0  0  0  0  0  0  0  0  0  0  0  0
   -4.5638   -2.7767    0.0967 H   0  0  0  0  0  0  0  0  0  0  0  0
   -4.1108   -1.0143   -1.5418 H   0  0  0  0  0  0  0  0  0  0  0  0
   -5.5877   -0.6072   -0.6638 H   0  0  0  0  0  0  0  0  0  0  0  0
   -2.4829   -2.6387    1.5028 H   0  0  0  0  0  0  0  0  0  0  0  0
   -2.1861   -2.2808   -0.2005 H   0  0  0  0  0  0  0  0  0  0  0  0
   -4.0405    1.3662   -0.9261 H   0  0  0  0  0  0  0  0  0  0  0  0
   -4.3307    0.9855    0.7796 H   0  0  0  0  0  0  0  0  0  0  0  0
   -2.5161   -0.2179    2.0404 H   0  0  0  0  0  0  0  0  0  0  0  0
   -1.0215   -0.6813    1.2569 H   0  0  0  0  0  0  0  0  0  0  0  0
    0.2369   -0.5362   -1.7139 H   0  0  0  0  0  0  0  0  0  0  0  0
   -0.0075    2.3285    1.4930 H   0  0  0  0  0  0  0  0  0  0  0  0
    2.3254    1.8375    2.1195 H   0  0  0  0  0  0  0  0  0  0  0  0
    4.5010   -0.2643   -1.6101 H   0  0  0  0  0  0  0  0  0  0  0  0
    4.5477   -2.0368   -1.5236 H   0  0  0  0  0  0  0  0  0  0  0  0
    3.9776   -1.9335    0.9401 H   0  0  0  0  0  0  0  0  0  0  0  0
    5.4919   -1.0845    0.5698 H   0  0  0  0  0  0  0  0  0  0  0  0
  1 13  1  0  0  0  0
  1 17  1  0  0  0  0
  2 10  2  0  0  0  0
  3 15  1  0  0  0  0
  3 18  1  0  0  0  0
  4  8  1  0  0  0  0
  4  9  1  0  0  0  0
  4 10  1  0  0  0  0
  5  6  1  0  0  0  0
  5  7  1  0  0  0  0
  5 19  1  0  0  0  0
  5 20  1  0  0  0  0
  6  8  1  0  0  0  0
  6 21  1  0  0  0  0
  6 22  1  0  0  0  0
  7  9  1  0  0  0  0
  7 23  1  0  0  0  0
  7 24  1  0  0  0  0
  8 25  1  0  0  0  0
  8 26  1  0  0  0  0
  9 27  1  0  0  0  0
  9 28  1  0  0  0  0
 10 11  1  0  0  0  0
 11 12  2  0  0  0  0
 11 14  1  0  0  0  0
 12 13  1  0  0  0  0
 12 29  1  0  0  0  0
 13 15  2  0  0  0  0
 14 16  2  0  0  0  0
 14 30  1  0  0  0  0
 15 16  1  0  0  0  0
 16 31  1  0  0  0  0
 17 18  1  0  0  0  0
 17 32  1  0  0  0  0
 17 33  1  0  0  0  0
 18 34  1  0  0  0  0
 18 35  1  0  0  0  0
M  END
> <PUBCHEM_COMPOUND_CID>
2890

> <PUBCHEM_CONFORMER_RMSD>
0.6

> <PUBCHEM_MMFF94_PARTIAL_CHARGES>
18
1 -0.36
10 0.54
11 0.09
12 -0.15
13 0.08
14 -0.15
15 0.08
16 -0.15
17 0.28
18 0.28
2 -0.57
29 0.15
3 -0.36
30 0.15
31 0.15
4 -0.66
8 0.3
9 0.3

> <PUBCHEM_EFFECTIVE_ROTOR_COUNT>
4

> <PUBCHEM_PHARMACOPHORE_FEATURES>
6
1 1 acceptor
1 2 acceptor
1 3 acceptor
6 1 3 13 15 17 18 rings
6 11 12 13 14 15 16 rings
6 4 5 6 7 8 9 rings

> <PUBCHEM_HEAVY_ATOM_COUNT>
18

> <PUBCHEM_ATOM_DEF_STEREO_COUNT>
0

> <PUBCHEM_ATOM_UDEF_STEREO_COUNT>
0

> <PUBCHEM_BOND_DEF_STEREO_COUNT>
0

> <PUBCHEM_BOND_UDEF_STEREO_COUNT>
0

> <PUBCHEM_ISOTOPIC_ATOM_COUNT>
0

> <PUBCHEM_COMPONENT_COUNT>
1

> <PUBCHEM_CACTVS_TAUTO_COUNT>
1

> <PUBCHEM_CONFORMER_ID>
00000B4A00000001

> <PUBCHEM_MMFF94_ENERGY>
50.8801

> <PUBCHEM_FEATURE_SELFOVERLAP>
-6.008

> <PUBCHEM_SHAPE_MULTIPOLES>
347.84
8.89
1.88
1.23
0.8
-4.65
0.02
0.05
-1.78
3.14
0.02
5.14
-1.31
-11.33

> <PUBCHEM_SHAPE_SELFOVERLAP>
745.354

> <PUBCHEM_SHAPE_VOLUME>
190.4

> <PUBCHEM_COORDINATE_TYPE>
2
5
255

$$$$
661117
  -OEChem-06081017553D

 36 39  0     0  0  0  0  0  0999 V2000
   -0.5003    3.0193   -0.6185 O   0  0  0  0  0  0  0  0  0  0  0  0
   -3.6087   -1.4404   -1.5649 O   0  0  0  0  0  0  0  0  0  0  0  0
   -4.7975   -1.3203    0.5280 O   0  0  0  0  0  0  0  0  0  0  0  0
    0.9428    1.3832    0.2247 N   0  0  0  0  0  0  0  0  0  0  0  0
    2.1351    2.2179    0.0954 C   0  0  0  0  0  0  0  0  0  0  0  0
    3.1677    1.5316   -0.7905 C   0  0  0  0  0  0  0  0  0  0  0  0
    1.1594    0.0465    0.7993 C   0  0  0  0  0  0  0  0  0  0  0  0
    3.4455    0.1280   -0.3193 C   0  0  0  0  0  0  0  0  0  0  0  0
    2.4803   -0.5796    0.4195 C   0  0  0  0  0  0  0  0  0  0  0  0
   -0.3042    1.9041   -0.1373 C   0  0  0  0  0  0  0  0  0  0  0  0
    4.6522   -0.4972   -0.6619 C   0  0  0  0  0  0  0  0  0  0  0  0
    2.7551   -1.8924    0.8297 C   0  0  0  0  0  0  0  0  0  0  0  0
   -1.4947    1.0657    0.0729 C   0  0  0  0  0  0  0  0  0  0  0  0
    4.9112   -1.8046   -0.2523 C   0  0  0  0  0  0  0  0  0  0  0  0
    3.9648   -2.5007    0.4953 C   0  0  0  0  0  0  0  0  0  0  0  0
   -1.9220    0.2110   -0.9425 C   0  0  0  0  0  0  0  0  0  0  0  0
   -2.1842    1.1388    1.2931 C   0  0  0  0  0  0  0  0  0  0  0  0
   -3.0437   -0.5549   -0.6995 C   0  0  0  0  0  0  0  0  0  0  0  0
   -3.7226   -0.4863    0.4955 C   0  0  0  0  0  0  0  0  0  0  0  0
   -3.3173    0.3522    1.5135 C   0  0  0  0  0  0  0  0  0  0  0  0
   -4.7190   -1.9218   -0.7803 C   0  0  0  0  0  0  0  0  0  0  0  0
    2.5304    2.3792    1.1061 H   0  0  0  0  0  0  0  0  0  0  0  0
    1.8844    3.1999   -0.3183 H   0  0  0  0  0  0  0  0  0  0  0  0
    4.0901    2.1237   -0.7875 H   0  0  0  0  0  0  0  0  0  0  0  0
    2.8000    1.4803   -1.8227 H   0  0  0  0  0  0  0  0  0  0  0  0
    0.3510   -0.6276    0.5044 H   0  0  0  0  0  0  0  0  0  0  0  0
    1.1235    0.1689    1.8885 H   0  0  0  0  0  0  0  0  0  0  0  0
    5.3979    0.0332   -1.2488 H   0  0  0  0  0  0  0  0  0  0  0  0
    2.0235   -2.4488    1.4105 H   0  0  0  0  0  0  0  0  0  0  0  0
    5.8508   -2.2804   -0.5177 H   0  0  0  0  0  0  0  0  0  0  0  0
    4.1670   -3.5188    0.8154 H   0  0  0  0  0  0  0  0  0  0  0  0
   -1.3960    0.1470   -1.8890 H   0  0  0  0  0  0  0  0  0  0  0  0
   -1.8416    1.8087    2.0781 H   0  0  0  0  0  0  0  0  0  0  0  0
   -3.8549    0.4034    2.4534 H   0  0  0  0  0  0  0  0  0  0  0  0
   -4.6207   -3.0072   -0.6623 H   0  0  0  0  0  0  0  0  0  0  0  0
   -5.6487   -1.7094   -1.3206 H   0  0  0  0  0  0  0  0  0  0  0  0
  1 10  2  0  0  0  0
  2 18  1  0  0  0  0
  2 21  1  0  0  0  0
  3 19  1  0  0  0  0
  3 21  1  0  0  0  0
  4  5  1  0  0  0  0
  4  7  1  0  0  0  0
  4 10  1  0  0  0  0
  5  6  1  0  0  0  0
  5 22  1  0  0  0  0
  5 23  1  0  0  0  0
  6  8  1  0  0  0  0
  6 24  1  0  0  0  0
  6 25  1  0  0  0  0
  7  9  1  0  0  0  0
  7 26  1  0  0  0  0
  7 27  1  0  0  0  0
  8  9  1  0  0  0  0
  8 11  2  0  0  0  0
  9 12  2  0  0  0  0
 10 13  1  0  0  0  0
 11 14  1  0  0  0  0
 11 28  1  0  0  0  0
 12 15  1  0  0  0  0
 12 29  1  0  0  0  0
 13 16  2  0  0  0  0
 13 17  1  0  0  0  0
 14 15  2  0  0  0  0
 14 30  1  0  0  0  0
 15 31  1  0  0  0  0
 16 18  1  0  0  0  0
 16 32  1  0  0  0  0
 17 20  2  0  0  0  0
 17 33  1  0  0  0  0
 18 19  2  0  0  0  0
 19 20  1  0  0  0  0
 20 34  1  0  0  0  0
 21 35  1  0  0  0  0
 21 36  1  0  0  0  0
M  END
> <PUBCHEM_COMPOUND_CID>
661117

> <PUBCHEM_CONFORMER_RMSD>
0.6

> <PUBCHEM_MMFF94_PARTIAL_CHARGES>
28
1 -0.57
10 0.54
11 -0.15
12 -0.15
13 0.09
14 -0.15
15 -0.15
16 -0.15
17 -0.15
18 0.08
19 0.08
2 -0.36
20 -0.15
21 0.56
28 0.15
29 0.15
3 -0.36
30 0.15
31 0.15
32 0.15
33 0.15
34 0.15
4 -0.66
5 0.3
6 0.14
7 0.44
8 -0.14
9 -0.14

> <PUBCHEM_EFFECTIVE_ROTOR_COUNT>
3.4

> <PUBCHEM_PHARMACOPHORE_FEATURES>
7
1 1 acceptor
1 2 acceptor
1 3 acceptor
5 2 3 18 19 21 rings
6 13 16 17 18 19 20 rings
6 4 5 6 7 8 9 rings
6 8 9 11 12 14 15 rings

> <PUBCHEM_HEAVY_ATOM_COUNT>
21

> <PUBCHEM_ATOM_DEF_STEREO_COUNT>
0

> <PUBCHEM_ATOM_UDEF_STEREO_COUNT>
0

> <PUBCHEM_BOND_DEF_STEREO_COUNT>
0

> <PUBCHEM_BOND_UDEF_STEREO_COUNT>
0

> <PUBCHEM_ISOTOPIC_ATOM_COUNT>
0

> <PUBCHEM_COMPONENT_COUNT>
1

> <PUBCHEM_CACTVS_TAUTO_COUNT>
1

> <PUBCHEM_CONFORMER_ID>
000A167D00000002

> <PUBCHEM_MMFF94_ENERGY>
60.1483

> <PUBCHEM_FEATURE_SELFOVERLAP>
-7.035

> <PUBCHEM_SHAPE_MULTIPOLES>
409.58
10.48
2.71
1.17
0.27
-7.5
1.18
-1.91
2.54
4.22
1.48
-4.92
2.9
-19.04

> <PUBCHEM_SHAPE_SELFOVERLAP>
911.643

> <PUBCHEM_SHAPE_VOLUME>
217.4

> <PUBCHEM_COORDINATE_TYPE>
2
5
255

$$$$
3237640
  -OEChem-06081017553D

 45 47  0     0  0  0  0  0  0999 V2000
   -0.2523   -2.1977   -0.2245 S   0  0  0  0  0  0  0  0  0  0  0  0
   -2.6832   -1.0959   -2.2997 O   0  0  0  0  0  0  0  0  0  0  0  0
    4.1048   -1.0663    0.6410 O   0  0  0  0  0  0  0  0  0  0  0  0
    5.0650    1.4437    0.2806 O   0  0  0  0  0  0  0  0  0  0  0  0
    2.1601   -2.6616    0.5081 O   0  0  0  0  0  0  0  0  0  0  0  0
   -3.3337   -0.5506   -0.1245 N   0  0  0  0  0  0  0  0  0  0  0  0
   -4.6017    1.7171    1.5609 C   0  0  0  0  0  0  0  0  0  0  0  0
   -5.7487    1.4839    0.5812 C   0  0  0  0  0  0  0  0  0  0  0  0
   -4.0265    0.4251    2.1380 C   0  0  0  0  0  0  0  0  0  0  0  0
   -5.3610    0.7539   -0.7018 C   0  0  0  0  0  0  0  0  0  0  0  0
   -2.9556   -0.2133    1.2544 C   0  0  0  0  0  0  0  0  0  0  0  0
   -4.7568   -0.6268   -0.4652 C   0  0  0  0  0  0  0  0  0  0  0  0
   -2.3995   -0.8106   -1.1351 C   0  0  0  0  0  0  0  0  0  0  0  0
   -0.9675   -0.7452   -0.7728 C   0  0  0  0  0  0  0  0  0  0  0  0
   -0.3515    0.4321   -0.9006 C   0  0  0  0  0  0  0  0  0  0  0  0
    1.0620    0.6393   -0.5775 C   0  0  0  0  0  0  0  0  0  0  0  0
    1.8945   -0.3870   -0.1078 C   0  0  0  0  0  0  0  0  0  0  0  0
    1.4177   -1.7762    0.1045 C   0  0  0  0  0  0  0  0  0  0  0  0
    3.2422   -0.1115    0.1800 C   0  0  0  0  0  0  0  0  0  0  0  0
    1.5986    1.9269   -0.7506 C   0  0  0  0  0  0  0  0  0  0  0  0
    3.7590    1.1717    0.0030 C   0  0  0  0  0  0  0  0  0  0  0  0
    2.9374    2.1911   -0.4623 C   0  0  0  0  0  0  0  0  0  0  0  0
    4.1958   -1.2234    2.0536 C   0  0  0  0  0  0  0  0  0  0  0  0
    6.0007    1.2813   -0.7831 C   0  0  0  0  0  0  0  0  0  0  0  0
   -3.8132    2.3164    1.0906 H   0  0  0  0  0  0  0  0  0  0  0  0
   -4.9952    2.3157    2.3921 H   0  0  0  0  0  0  0  0  0  0  0  0
   -6.5498    0.9288    1.0856 H   0  0  0  0  0  0  0  0  0  0  0  0
   -6.1758    2.4567    0.3081 H   0  0  0  0  0  0  0  0  0  0  0  0
   -3.5568    0.6584    3.1022 H   0  0  0  0  0  0  0  0  0  0  0  0
   -4.8281   -0.2889    2.3592 H   0  0  0  0  0  0  0  0  0  0  0  0
   -6.2716    0.6356   -1.3022 H   0  0  0  0  0  0  0  0  0  0  0  0
   -4.6742    1.3756   -1.2890 H   0  0  0  0  0  0  0  0  0  0  0  0
   -2.0869    0.4522    1.2332 H   0  0  0  0  0  0  0  0  0  0  0  0
   -2.6264   -1.1475    1.7246 H   0  0  0  0  0  0  0  0  0  0  0  0
   -5.2877   -1.1892    0.3103 H   0  0  0  0  0  0  0  0  0  0  0  0
   -4.8682   -1.2068   -1.3885 H   0  0  0  0  0  0  0  0  0  0  0  0
   -0.9040    1.2973   -1.2603 H   0  0  0  0  0  0  0  0  0  0  0  0
    0.9767    2.7430   -1.1135 H   0  0  0  0  0  0  0  0  0  0  0  0
    3.3290    3.1948   -0.6033 H   0  0  0  0  0  0  0  0  0  0  0  0
    4.6781   -2.1823    2.2622 H   0  0  0  0  0  0  0  0  0  0  0  0
    3.2093   -1.2163    2.5289 H   0  0  0  0  0  0  0  0  0  0  0  0
    4.8125   -0.4249    2.4774 H   0  0  0  0  0  0  0  0  0  0  0  0
    5.7668    1.9633   -1.6067 H   0  0  0  0  0  0  0  0  0  0  0  0
    6.0034    0.2469   -1.1411 H   0  0  0  0  0  0  0  0  0  0  0  0
    6.9971    1.5217   -0.4025 H   0  0  0  0  0  0  0  0  0  0  0  0
  1 14  1  0  0  0  0
  1 18  1  0  0  0  0
  2 13  2  0  0  0  0
  3 19  1  0  0  0  0
  3 23  1  0  0  0  0
  4 21  1  0  0  0  0
  4 24  1  0  0  0  0
  5 18  2  0  0  0  0
  6 11  1  0  0  0  0
  6 12  1  0  0  0  0
  6 13  1  0  0  0  0
  7  8  1  0  0  0  0
  7  9  1  0  0  0  0
  7 25  1  0  0  0  0
  7 26  1  0  0  0  0
  8 10  1  0  0  0  0
  8 27  1  0  0  0  0
  8 28  1  0  0  0  0
  9 11  1  0  0  0  0
  9 29  1  0  0  0  0
  9 30  1  0  0  0  0
 10 12  1  0  0  0  0
 10 31  1  0  0  0  0
 10 32  1  0  0  0  0
 11 33  1  0  0  0  0
 11 34  1  0  0  0  0
 12 35  1  0  0  0  0
 12 36  1  0  0  0  0
 13 14  1  0  0  0  0
 14 15  2  0  0  0  0
 15 16  1  0  0  0  0
 15 37  1  0  0  0  0
 16 17  2  0  0  0  0
 16 20  1  0  0  0  0
 17 18  1  0  0  0  0
 17 19  1  0  0  0  0
 19 21  2  0  0  0  0
 20 22  2  0  0  0  0
 20 38  1  0  0  0  0
 21 22  1  0  0  0  0
 22 39  1  0  0  0  0
 23 40  1  0  0  0  0
 23 41  1  0  0  0  0
 23 42  1  0  0  0  0
 24 43  1  0  0  0  0
 24 44  1  0  0  0  0
 24 45  1  0  0  0  0
M  END
> <PUBCHEM_COMPOUND_CID>
3237640

> <PUBCHEM_CONFORMER_RMSD>
0.8

> <PUBCHEM_MMFF94_PARTIAL_CHARGES>
23
1 -0.24
11 0.3
12 0.3
13 0.62
14 0.12
15 -0.18
16 0.03
17 0.09
18 0.62
19 0.08
2 -0.57
20 -0.15
21 0.08
22 -0.15
23 0.28
24 0.28
3 -0.36
37 0.15
38 0.15
39 0.15
4 -0.36
5 -0.57
6 -0.66

> <PUBCHEM_EFFECTIVE_ROTOR_COUNT>
5.4

> <PUBCHEM_PHARMACOPHORE_FEATURES>
6
1 2 acceptor
1 3 acceptor
1 4 acceptor
6 1 14 15 16 17 18 rings
6 16 17 19 20 21 22 rings
7 6 7 8 9 10 11 12 rings

> <PUBCHEM_HEAVY_ATOM_COUNT>
24

> <PUBCHEM_ATOM_DEF_STEREO_COUNT>
0

> <PUBCHEM_ATOM_UDEF_STEREO_COUNT>
0

> <PUBCHEM_BOND_DEF_STEREO_COUNT>
0

> <PUBCHEM_BOND_UDEF_STEREO_COUNT>
0

> <PUBCHEM_ISOTOPIC_ATOM_COUNT>
0

> <PUBCHEM_COMPONENT_COUNT>
1

> <PUBCHEM_CACTVS_TAUTO_COUNT>
1

> <PUBCHEM_CONFORMER_ID>
0031670800000001

> <PUBCHEM_MMFF94_ENERGY>
88.9011

> <PUBCHEM_FEATURE_SELFOVERLAP>
-6.005

> <PUBCHEM_SHAPE_MULTIPOLES>
469.3
12.91
2.3
1.6
2.86
-5.59
3.26
-3.79
1.91
3.98
5.21
-8.31
5.97
-14.65

> <PUBCHEM_SHAPE_SELFOVERLAP>
986.582

> <PUBCHEM_SHAPE_VOLUME>
263.4

> <PUBCHEM_COORDINATE_TYPE>
2
5
255

$$$$
3107731
  -OEChem-06081017553D

 50 52  0     0  0  0  0  0  0999 V2000
    5.4097   -1.9141   -1.0452 O   0  0  0  0  0  0  0  0  0  0  0  0
   -2.5953   -1.7984    1.1580 O   0  0  0  0  0  0  0  0  0  0  0  0
   -7.3463    0.8012   -1.2625 O   0  5  0  0  0  0  0  0  0  0  0  0
   -3.7695    3.8620   -0.1727 O   0  5  0  0  0  0  0  0  0  0  0  0
   -7.1186   -1.3432   -0.8518 O   0  0  0  0  0  0  0  0  0  0  0  0
   -1.9176    3.1074    0.7328 O   0  0  0  0  0  0  0  0  0  0  0  0
    5.7584    0.3447   -0.6280 N   0  0  0  0  0  0  0  0  0  0  0  0
   -6.6765   -0.1691   -0.8332 N   0  3  0  0  0  0  0  0  0  0  0  0
   -3.0671    2.9195    0.2662 N   0  3  0  0  0  0  0  0  0  0  0  0
    7.6143    2.2577    0.4933 C   0  0  0  0  0  0  0  0  0  0  0  0
    6.1352    2.2613    0.8764 C   0  0  0  0  0  0  0  0  0  0  0  0
    8.0650    0.8609    0.0687 C   0  0  0  0  0  0  0  0  0  0  0  0
    5.2715    1.6738   -0.2376 C   0  0  0  0  0  0  0  0  0  0  0  0
    7.1660    0.3009   -1.0301 C   0  0  0  0  0  0  0  0  0  0  0  0
    4.9862   -0.8154   -0.6771 C   0  0  0  0  0  0  0  0  0  0  0  0
    3.5473   -0.6879   -0.2443 C   0  0  0  0  0  0  0  0  0  0  0  0
    2.8359   -2.0290   -0.3518 C   0  0  0  0  0  0  0  0  0  0  0  0
    1.3830   -1.9669    0.0522 C   0  0  0  0  0  0  0  0  0  0  0  0
    1.0351   -2.1937    1.3743 C   0  0  0  0  0  0  0  0  0  0  0  0
    0.4231   -1.6850   -0.9069 C   0  0  0  0  0  0  0  0  0  0  0  0
   -0.3079   -2.1371    1.7470 C   0  0  0  0  0  0  0  0  0  0  0  0
   -0.9198   -1.6283   -0.5340 C   0  0  0  0  0  0  0  0  0  0  0  0
   -1.2853   -1.8544    0.7930 C   0  0  0  0  0  0  0  0  0  0  0  0
   -3.3525   -0.7428    0.6784 C   0  0  0  0  0  0  0  0  0  0  0  0
   -2.8267    0.5359    0.7172 C   0  0  0  0  0  0  0  0  0  0  0  0
   -4.6152   -0.9942    0.1729 C   0  0  0  0  0  0  0  0  0  0  0  0
   -5.3779    0.0690   -0.3103 C   0  0  0  0  0  0  0  0  0  0  0  0
   -3.5894    1.5994    0.2342 C   0  0  0  0  0  0  0  0  0  0  0  0
   -4.8650    1.3658   -0.2794 C   0  0  0  0  0  0  0  0  0  0  0  0
    7.7807    2.9623   -0.3307 H   0  0  0  0  0  0  0  0  0  0  0  0
    8.2188    2.6027    1.3395 H   0  0  0  0  0  0  0  0  0  0  0  0
    5.9996    1.6706    1.7910 H   0  0  0  0  0  0  0  0  0  0  0  0
    5.8113    3.2838    1.0992 H   0  0  0  0  0  0  0  0  0  0  0  0
    9.1033    0.8937   -0.2789 H   0  0  0  0  0  0  0  0  0  0  0  0
    8.0343    0.1938    0.9393 H   0  0  0  0  0  0  0  0  0  0  0  0
    5.3186    2.3087   -1.1304 H   0  0  0  0  0  0  0  0  0  0  0  0
    4.2301    1.6534    0.0871 H   0  0  0  0  0  0  0  0  0  0  0  0
    7.4716   -0.7221   -1.2712 H   0  0  0  0  0  0  0  0  0  0  0  0
    7.2629    0.8963   -1.9458 H   0  0  0  0  0  0  0  0  0  0  0  0
    3.0468    0.0478   -0.8842 H   0  0  0  0  0  0  0  0  0  0  0  0
    3.5165   -0.3336    0.7925 H   0  0  0  0  0  0  0  0  0  0  0  0
    2.9013   -2.4139   -1.3789 H   0  0  0  0  0  0  0  0  0  0  0  0
    3.3452   -2.7804    0.2675 H   0  0  0  0  0  0  0  0  0  0  0  0
    1.7893   -2.4123    2.1248 H   0  0  0  0  0  0  0  0  0  0  0  0
    0.6980   -1.5104   -1.9431 H   0  0  0  0  0  0  0  0  0  0  0  0
   -0.5865   -2.3129    2.7825 H   0  0  0  0  0  0  0  0  0  0  0  0
   -1.6615   -1.4284   -1.3029 H   0  0  0  0  0  0  0  0  0  0  0  0
   -1.8427    0.7100    1.1443 H   0  0  0  0  0  0  0  0  0  0  0  0
   -4.9836   -2.0166    0.1639 H   0  0  0  0  0  0  0  0  0  0  0  0
   -5.4597    2.1949   -0.6560 H   0  0  0  0  0  0  0  0  0  0  0  0
  1 15  2  0  0  0  0
  2 23  1  0  0  0  0
  2 24  1  0  0  0  0
  3  8  1  0  0  0  0
  4  9  1  0  0  0  0
  5  8  2  0  0  0  0
  6  9  2  0  0  0  0
  7 13  1  0  0  0  0
  7 14  1  0  0  0  0
  7 15  1  0  0  0  0
  8 27  1  0  0  0  0
  9 28  1  0  0  0  0
 10 11  1  0  0  0  0
 10 12  1  0  0  0  0
 10 30  1  0  0  0  0
 10 31  1  0  0  0  0
 11 13  1  0  0  0  0
 11 32  1  0  0  0  0
 11 33  1  0  0  0  0
 12 14  1  0  0  0  0
 12 34  1  0  0  0  0
 12 35  1  0  0  0  0
 13 36  1  0  0  0  0
 13 37  1  0  0  0  0
 14 38  1  0  0  0  0
 14 39  1  0  0  0  0
 15 16  1  0  0  0  0
 16 17  1  0  0  0  0
 16 40  1  0  0  0  0
 16 41  1  0  0  0  0
 17 18  1  0  0  0  0
 17 42  1  0  0  0  0
 17 43  1  0  0  0  0
 18 19  2  0  0  0  0
 18 20  1  0  0  0  0
 19 21  1  0  0  0  0
 19 44  1  0  0  0  0
 20 22  2  0  0  0  0
 20 45  1  0  0  0  0
 21 23  2  0  0  0  0
 21 46  1  0  0  0  0
 22 23  1  0  0  0  0
 22 47  1  0  0  0  0
 24 25  2  0  0  0  0
 24 26  1  0  0  0  0
 25 28  1  0  0  0  0
 25 48  1  0  0  0  0
 26 27  2  0  0  0  0
 26 49  1  0  0  0  0
 27 29  1  0  0  0  0
 28 29  2  0  0  0  0
 29 50  1  0  0  0  0
M  CHG  4   3  -1   4  -1   8   1   9   1
M  END
> <PUBCHEM_COMPOUND_CID>
3107731

> <PUBCHEM_CONFORMER_RMSD>
1

> <PUBCHEM_MMFF94_PARTIAL_CHARGES>
33
1 -0.57
13 0.3
14 0.3
15 0.57
16 0.06
17 0.14
18 -0.14
19 -0.15
2 -0.17
20 -0.15
21 -0.15
22 -0.15
23 0.08
24 0.08
25 -0.15
26 -0.15
27 0.13
28 0.13
29 -0.15
3 -0.52
4 -0.52
44 0.15
45 0.15
46 0.15
47 0.15
48 0.15
49 0.15
5 -0.52
50 0.15
6 -0.52
7 -0.66
8 0.91
9 0.91

> <PUBCHEM_EFFECTIVE_ROTOR_COUNT>
9.2

> <PUBCHEM_PHARMACOPHORE_FEATURES>
11
1 1 acceptor
1 2 acceptor
1 3 acceptor
1 3 anion
1 4 acceptor
1 4 anion
1 5 acceptor
1 6 acceptor
6 18 19 20 21 22 23 rings
6 24 25 26 27 28 29 rings
6 7 10 11 12 13 14 rings

> <PUBCHEM_HEAVY_ATOM_COUNT>
29

> <PUBCHEM_ATOM_DEF_STEREO_COUNT>
0

> <PUBCHEM_ATOM_UDEF_STEREO_COUNT>
0

> <PUBCHEM_BOND_DEF_STEREO_COUNT>
0

> <PUBCHEM_BOND_UDEF_STEREO_COUNT>
0

> <PUBCHEM_ISOTOPIC_ATOM_COUNT>
0

> <PUBCHEM_COMPONENT_COUNT>
1

> <PUBCHEM_CACTVS_TAUTO_COUNT>
1

> <PUBCHEM_CONFORMER_ID>
002F6B9300000001

> <PUBCHEM_MMFF94_ENERGY>
85.0828

> <PUBCHEM_FEATURE_SELFOVERLAP>
-11.032

> <PUBCHEM_SHAPE_MULTIPOLES>
546.65
22.24
3.53
1.17
17.46
14.53
-4.92
7.83
-10.9
-10.3
-12.73
4.97
15.81
27.92

> <PUBCHEM_SHAPE_SELFOVERLAP>
1168.515

> <PUBCHEM_SHAPE_VOLUME>
302.7

> <PUBCHEM_COORDINATE_TYPE>
2
5
255

$$$$
1069750
  -OEChem-06081017553D

 49 51  0     0  0  0  0  0  0999 V2000
    3.8977   -2.1457   -1.1121 O   0  0  0  0  0  0  0  0  0  0  0  0
   -2.3038   -1.3588    2.1353 O   0  0  0  0  0  0  0  0  0  0  0  0
   -3.4018   -2.1681   -0.9452 O   0  0  0  0  0  0  0  0  0  0  0  0
   -4.3293    3.1983   -0.0844 O   0  0  0  0  0  0  0  0  0  0  0  0
    4.4406   -0.1564   -0.0097 N   0  0  0  0  0  0  0  0  0  0  0  0
    5.7330    2.4239   -0.0822 C   0  0  0  0  0  0  0  0  0  0  0  0
    6.2307    1.2568   -0.9354 C   0  0  0  0  0  0  0  0  0  0  0  0
    4.2428    2.2831    0.2285 C   0  0  0  0  0  0  0  0  0  0  0  0
    5.8802   -0.0825   -0.2928 C   0  0  0  0  0  0  0  0  0  0  0  0
    3.9293    0.9196    0.8397 C   0  0  0  0  0  0  0  0  0  0  0  0
    3.5781   -1.1686   -0.4367 C   0  0  0  0  0  0  0  0  0  0  0  0
    2.1650   -1.0843   -0.0472 C   0  0  0  0  0  0  0  0  0  0  0  0
    1.2589   -0.4170   -0.8673 C   0  0  0  0  0  0  0  0  0  0  0  0
    1.7381   -1.6714    1.1411 C   0  0  0  0  0  0  0  0  0  0  0  0
   -0.5149   -0.9227    0.6929 C   0  0  0  0  0  0  0  0  0  0  0  0
   -0.0834   -0.3360   -0.4965 C   0  0  0  0  0  0  0  0  0  0  0  0
    0.3958   -1.5905    1.5119 C   0  0  0  0  0  0  0  0  0  0  0  0
   -1.9142   -0.8388    1.0789 C   0  0  0  0  0  0  0  0  0  0  0  0
   -2.9353   -0.1380    0.2429 C   0  0  0  0  0  0  0  0  0  0  0  0
   -3.6213   -0.8420   -0.7199 C   0  0  0  0  0  0  0  0  0  0  0  0
   -3.1478    1.2020    0.4780 C   0  0  0  0  0  0  0  0  0  0  0  0
   -4.0978    1.8732   -0.2918 C   0  0  0  0  0  0  0  0  0  0  0  0
   -4.5714   -0.1706   -1.4897 C   0  0  0  0  0  0  0  0  0  0  0  0
   -4.8095    1.1870   -1.2756 C   0  0  0  0  0  0  0  0  0  0  0  0
   -4.1931   -3.0911   -0.2000 C   0  0  0  0  0  0  0  0  0  0  0  0
   -3.5667    3.8386    0.9375 C   0  0  0  0  0  0  0  0  0  0  0  0
    6.2999    2.4574    0.8562 H   0  0  0  0  0  0  0  0  0  0  0  0
    5.9165    3.3702   -0.6032 H   0  0  0  0  0  0  0  0  0  0  0  0
    5.7683    1.3165   -1.9286 H   0  0  0  0  0  0  0  0  0  0  0  0
    7.3144    1.3317   -1.0761 H   0  0  0  0  0  0  0  0  0  0  0  0
    3.9306    3.0797    0.9128 H   0  0  0  0  0  0  0  0  0  0  0  0
    3.6690    2.4069   -0.6985 H   0  0  0  0  0  0  0  0  0  0  0  0
    6.1621   -0.9077   -0.9547 H   0  0  0  0  0  0  0  0  0  0  0  0
    6.4128   -0.2136    0.6559 H   0  0  0  0  0  0  0  0  0  0  0  0
    4.4322    0.8229    1.8103 H   0  0  0  0  0  0  0  0  0  0  0  0
    2.8600    0.8744    1.0439 H   0  0  0  0  0  0  0  0  0  0  0  0
    1.5862    0.0441   -1.7955 H   0  0  0  0  0  0  0  0  0  0  0  0
    2.4403   -2.1933    1.7860 H   0  0  0  0  0  0  0  0  0  0  0  0
   -0.7576    0.1930   -1.1631 H   0  0  0  0  0  0  0  0  0  0  0  0
    0.0853   -2.0560    2.4435 H   0  0  0  0  0  0  0  0  0  0  0  0
   -2.5636    1.6792    1.2569 H   0  0  0  0  0  0  0  0  0  0  0  0
   -5.1289   -0.6983   -2.2588 H   0  0  0  0  0  0  0  0  0  0  0  0
   -5.5502    1.7047   -1.8788 H   0  0  0  0  0  0  0  0  0  0  0  0
   -5.2422   -3.0199   -0.5038 H   0  0  0  0  0  0  0  0  0  0  0  0
   -4.1046   -2.9138    0.8757 H   0  0  0  0  0  0  0  0  0  0  0  0
   -3.8352   -4.1012   -0.4173 H   0  0  0  0  0  0  0  0  0  0  0  0
   -3.7808    3.4150    1.9247 H   0  0  0  0  0  0  0  0  0  0  0  0
   -3.8799    4.8874    0.9652 H   0  0  0  0  0  0  0  0  0  0  0  0
   -2.4963    3.8309    0.7054 H   0  0  0  0  0  0  0  0  0  0  0  0
  1 11  2  0  0  0  0
  2 18  2  0  0  0  0
  3 20  1  0  0  0  0
  3 25  1  0  0  0  0
  4 22  1  0  0  0  0
  4 26  1  0  0  0  0
  5  9  1  0  0  0  0
  5 10  1  0  0  0  0
  5 11  1  0  0  0  0
  6  7  1  0  0  0  0
  6  8  1  0  0  0  0
  6 27  1  0  0  0  0
  6 28  1  0  0  0  0
  7  9  1  0  0  0  0
  7 29  1  0  0  0  0
  7 30  1  0  0  0  0
  8 10  1  0  0  0  0
  8 31  1  0  0  0  0
  8 32  1  0  0  0  0
  9 33  1  0  0  0  0
  9 34  1  0  0  0  0
 10 35  1  0  0  0  0
 10 36  1  0  0  0  0
 11 12  1  0  0  0  0
 12 13  2  0  0  0  0
 12 14  1  0  0  0  0
 13 16  1  0  0  0  0
 13 37  1  0  0  0  0
 14 17  2  0  0  0  0
 14 38  1  0  0  0  0
 15 16  2  0  0  0  0
 15 17  1  0  0  0  0
 15 18  1  0  0  0  0
 16 39  1  0  0  0  0
 17 40  1  0  0  0  0
 18 19  1  0  0  0  0
 19 20  2  0  0  0  0
 19 21  1  0  0  0  0
 20 23  1  0  0  0  0
 21 22  2  0  0  0  0
 21 41  1  0  0  0  0
 22 24  1  0  0  0  0
 23 24  2  0  0  0  0
 23 42  1  0  0  0  0
 24 43  1  0  0  0  0
 25 44  1  0  0  0  0
 25 45  1  0  0  0  0
 25 46  1  0  0  0  0
 26 47  1  0  0  0  0
 26 48  1  0  0  0  0
 26 49  1  0  0  0  0
M  END
> <PUBCHEM_COMPOUND_CID>
1069750

> <PUBCHEM_CONFORMER_RMSD>
0.8

> <PUBCHEM_MMFF94_PARTIAL_CHARGES>
30
1 -0.57
10 0.3
11 0.54
12 0.09
13 -0.15
14 -0.15
15 0.09
16 -0.15
17 -0.15
18 0.4
19 0.09
2 -0.57
20 0.08
21 -0.15
22 0.08
23 -0.15
24 -0.15
25 0.28
26 0.28
3 -0.36
37 0.15
38 0.15
39 0.15
4 -0.36
40 0.15
41 0.15
42 0.15
43 0.15
5 -0.66
9 0.3

> <PUBCHEM_EFFECTIVE_ROTOR_COUNT>
7.2

> <PUBCHEM_PHARMACOPHORE_FEATURES>
7
1 1 acceptor
1 2 acceptor
1 3 acceptor
1 4 acceptor
6 12 13 14 15 16 17 rings
6 19 20 21 22 23 24 rings
6 5 6 7 8 9 10 rings

> <PUBCHEM_HEAVY_ATOM_COUNT>
26

> <PUBCHEM_ATOM_DEF_STEREO_COUNT>
0

> <PUBCHEM_ATOM_UDEF_STEREO_COUNT>
0

> <PUBCHEM_BOND_DEF_STEREO_COUNT>
0

> <PUBCHEM_BOND_UDEF_STEREO_COUNT>
0

> <PUBCHEM_ISOTOPIC_ATOM_COUNT>
0

> <PUBCHEM_COMPONENT_COUNT>
1

> <PUBCHEM_CACTVS_TAUTO_COUNT>
1

> <PUBCHEM_CONFORMER_ID>
001052B600000004

> <PUBCHEM_MMFF94_ENERGY>
98.4495

> <PUBCHEM_FEATURE_SELFOVERLAP>
-7

> <PUBCHEM_SHAPE_MULTIPOLES>
506.61
14.41
3.44
1.35
9.01
9.24
-3.49
5.84
-7.86
-6.75
-9.3
-1.03
17.92
15.49

> <PUBCHEM_SHAPE_SELFOVERLAP>
1087.589

> <PUBCHEM_SHAPE_VOLUME>
279.7

> <PUBCHEM_COORDINATE_TYPE>
2
5
255

$$$$
659809
  -OEChem-06081017553D

 47 50  0     1  0  0  0  0  0999 V2000
    5.5649    3.2151    0.8125 Cl  0  0  0  0  0  0  0  0  0  0  0  0
    2.3351   -1.4293    2.2876 O   0  0  0  0  0  0  0  0  0  0  0  0
    2.2522   -0.1805   -2.1914 O   0  0  0  0  0  0  0  0  0  0  0  0
   -4.3484   -2.1767    0.4027 O   0  0  0  0  0  0  0  0  0  0  0  0
    1.8320   -0.8442    0.0440 N   0  0  0  0  0  0  0  0  0  0  0  0
   -4.5659    0.0375   -0.3163 N   0  0  0  0  0  0  0  0  0  0  0  0
    4.0348   -0.6121    0.7947 C   0  0  1  0  0  0  0  0  0  0  0  0
    4.0362   -0.8716   -0.7081 C   0  0  2  0  0  0  0  0  0  0  0  0
    4.2396    0.8582    1.1983 C   0  0  0  0  0  0  0  0  0  0  0  0
    5.0987   -0.1211   -1.5056 C   0  0  0  0  0  0  0  0  0  0  0  0
    2.6305   -1.0289    1.1703 C   0  0  0  0  0  0  0  0  0  0  0  0
    2.6002   -0.5725   -1.0872 C   0  0  0  0  0  0  0  0  0  0  0  0
    5.0872    1.6494    0.2537 C   0  0  0  0  0  0  0  0  0  0  0  0
    5.4740    1.2171   -0.9515 C   0  0  0  0  0  0  0  0  0  0  0  0
    0.4030   -0.9100    0.0495 C   0  0  0  0  0  0  0  0  0  0  0  0
   -5.7967    2.6264    0.0254 C   0  0  0  0  0  0  0  0  0  0  0  0
   -4.2785    2.4502    0.0622 C   0  0  0  0  0  0  0  0  0  0  0  0
   -6.5107    1.3408    0.4438 C   0  0  0  0  0  0  0  0  0  0  0  0
   -3.8409    1.2327   -0.7483 C   0  0  0  0  0  0  0  0  0  0  0  0
   -6.0291    0.1508   -0.3819 C   0  0  0  0  0  0  0  0  0  0  0  0
   -3.8542   -1.1020    0.0657 C   0  0  0  0  0  0  0  0  0  0  0  0
   -0.3100   -0.5654    1.2000 C   0  0  0  0  0  0  0  0  0  0  0  0
   -0.2848   -1.3180   -1.0957 C   0  0  0  0  0  0  0  0  0  0  0  0
   -2.3875   -1.0364    0.0605 C   0  0  0  0  0  0  0  0  0  0  0  0
   -1.7034   -0.6287    1.2055 C   0  0  0  0  0  0  0  0  0  0  0  0
   -1.6782   -1.3810   -1.0902 C   0  0  0  0  0  0  0  0  0  0  0  0
    4.7673   -1.2581    1.2914 H   0  0  0  0  0  0  0  0  0  0  0  0
    4.1613   -1.9479   -0.8984 H   0  0  0  0  0  0  0  0  0  0  0  0
    4.6934    0.8689    2.1982 H   0  0  0  0  0  0  0  0  0  0  0  0
    3.2744    1.3720    1.3050 H   0  0  0  0  0  0  0  0  0  0  0  0
    4.7788    0.0048   -2.5463 H   0  0  0  0  0  0  0  0  0  0  0  0
    6.0131   -0.7274   -1.5322 H   0  0  0  0  0  0  0  0  0  0  0  0
    6.1024    1.8426   -1.5806 H   0  0  0  0  0  0  0  0  0  0  0  0
   -6.1076    2.9026   -0.9897 H   0  0  0  0  0  0  0  0  0  0  0  0
   -6.0919    3.4481    0.6873 H   0  0  0  0  0  0  0  0  0  0  0  0
   -3.7918    3.3518   -0.3260 H   0  0  0  0  0  0  0  0  0  0  0  0
   -3.9558    2.3291    1.1039 H   0  0  0  0  0  0  0  0  0  0  0  0
   -6.3133    1.1509    1.5062 H   0  0  0  0  0  0  0  0  0  0  0  0
   -7.5936    1.4604    0.3304 H   0  0  0  0  0  0  0  0  0  0  0  0
   -4.0838    1.3845   -1.8077 H   0  0  0  0  0  0  0  0  0  0  0  0
   -2.7555    1.1564   -0.6917 H   0  0  0  0  0  0  0  0  0  0  0  0
   -6.4811   -0.7758   -0.0139 H   0  0  0  0  0  0  0  0  0  0  0  0
   -6.3067    0.2667   -1.4357 H   0  0  0  0  0  0  0  0  0  0  0  0
    0.1873   -0.2149    2.0994 H   0  0  0  0  0  0  0  0  0  0  0  0
    0.2358   -1.6204   -1.9993 H   0  0  0  0  0  0  0  0  0  0  0  0
   -2.2473   -0.3508    2.1048 H   0  0  0  0  0  0  0  0  0  0  0  0
   -2.2017   -1.7054   -1.9859 H   0  0  0  0  0  0  0  0  0  0  0  0
  1 13  1  0  0  0  0
  2 11  2  0  0  0  0
  3 12  2  0  0  0  0
  4 21  2  0  0  0  0
  5 11  1  0  0  0  0
  5 12  1  0  0  0  0
  5 15  1  0  0  0  0
  6 19  1  0  0  0  0
  6 20  1  0  0  0  0
  6 21  1  0  0  0  0
  7  8  1  0  0  0  0
  7  9  1  0  0  0  0
  7 11  1  0  0  0  0
  7 27  1  0  0  0  0
  8 10  1  0  0  0  0
  8 12  1  0  0  0  0
  8 28  1  0  0  0  0
  9 13  1  0  0  0  0
  9 29  1  0  0  0  0
  9 30  1  0  0  0  0
 10 14  1  0  0  0  0
 10 31  1  0  0  0  0
 10 32  1  0  0  0  0
 13 14  2  0  0  0  0
 14 33  1  0  0  0  0
 15 22  2  0  0  0  0
 15 23  1  0  0  0  0
 16 17  1  0  0  0  0
 16 18  1  0  0  0  0
 16 34  1  0  0  0  0
 16 35  1  0  0  0  0
 17 19  1  0  0  0  0
 17 36  1  0  0  0  0
 17 37  1  0  0  0  0
 18 20  1  0  0  0  0
 18 38  1  0  0  0  0
 18 39  1  0  0  0  0
 19 40  1  0  0  0  0
 19 41  1  0  0  0  0
 20 42  1  0  0  0  0
 20 43  1  0  0  0  0
 21 24  1  0  0  0  0
 22 25  1  0  0  0  0
 22 44  1  0  0  0  0
 23 26  2  0  0  0  0
 23 45  1  0  0  0  0
 24 25  2  0  0  0  0
 24 26  1  0  0  0  0
 25 46  1  0  0  0  0
 26 47  1  0  0  0  0
M  END
> <PUBCHEM_COMPOUND_CID>
659809

> <PUBCHEM_CONFORMER_RMSD>
0.8

> <PUBCHEM_MMFF94_PARTIAL_CHARGES>
27
1 -0.14
10 0.14
11 0.57
12 0.57
14 -0.29
15 0.12
19 0.3
2 -0.57
20 0.3
21 0.54
22 -0.15
23 -0.15
24 0.09
25 -0.15
26 -0.15
3 -0.57
33 0.15
4 -0.57
44 0.15
45 0.15
46 0.15
47 0.15
5 -0.24
6 -0.66
7 0.06
8 0.06
9 0.14

> <PUBCHEM_EFFECTIVE_ROTOR_COUNT>
4.8

> <PUBCHEM_PHARMACOPHORE_FEATURES>
7
1 2 acceptor
1 3 acceptor
1 4 acceptor
5 5 7 8 11 12 rings
6 15 22 23 24 25 26 rings
6 6 16 17 18 19 20 rings
6 7 8 9 10 13 14 rings

> <PUBCHEM_HEAVY_ATOM_COUNT>
26

> <PUBCHEM_ATOM_DEF_STEREO_COUNT>
0

> <PUBCHEM_ATOM_UDEF_STEREO_COUNT>
2

> <PUBCHEM_BOND_DEF_STEREO_COUNT>
0

> <PUBCHEM_BOND_UDEF_STEREO_COUNT>
0

> <PUBCHEM_ISOTOPIC_ATOM_COUNT>
0

> <PUBCHEM_COMPONENT_COUNT>
1

> <PUBCHEM_CACTVS_TAUTO_COUNT>
4

> <PUBCHEM_CONFORMER_ID>
000A116100000001

> <PUBCHEM_MMFF94_ENERGY>
67.6659

> <PUBCHEM_FEATURE_SELFOVERLAP>
-7.036

> <PUBCHEM_SHAPE_MULTIPOLES>
509.37
16.41
2.53
1.51
6.96
13.38
0.65
-1.13
-9.49
-9.5
2.61
2.21
5.6
25.88

> <PUBCHEM_SHAPE_SELFOVERLAP>
1095.534

> <PUBCHEM_SHAPE_VOLUME>
279.3

> <PUBCHEM_COORDINATE_TYPE>
2
5
255

$$$$
9550573
  -OEChem-06081017553D

 36 38  0     0  0  0  0  0  0999 V2000
    2.2184   -1.7285   -0.6399 O   0  0  0  0  0  0  0  0  0  0  0  0
   -2.4855    1.7587   -1.0939 O   0  0  0  0  0  0  0  0  0  0  0  0
   -5.0586   -0.9900    1.2247 O   0  0  0  0  0  0  0  0  0  0  0  0
    0.1886    0.9778   -0.1612 N   0  0  0  0  0  0  0  0  0  0  0  0
   -3.1291   -0.4299   -0.8258 N   0  0  0  0  0  0  0  0  0  0  0  0
    1.3575    0.2665   -0.1267 C   0  0  0  0  0  0  0  0  0  0  0  0
    1.1003   -0.9560   -0.6392 C   0  0  0  0  0  0  0  0  0  0  0  0
    2.7177    0.3342    0.2409 C   0  0  0  0  0  0  0  0  0  0  0  0
   -0.7808    0.1599   -0.7051 C   0  0  0  0  0  0  0  0  0  0  0  0
   -0.2457   -1.0762   -1.0228 C   0  0  0  0  0  0  0  0  0  0  0  0
    3.1924   -0.9298   -0.1020 C   0  0  0  0  0  0  0  0  0  0  0  0
    0.0467    2.3364    0.3009 C   0  0  0  0  0  0  0  0  0  0  0  0
    3.5888    1.2759    0.8051 C   0  0  0  0  0  0  0  0  0  0  0  0
   -2.1403    0.5713   -0.8968 C   0  0  0  0  0  0  0  0  0  0  0  0
    4.5192   -1.3189    0.0899 C   0  0  0  0  0  0  0  0  0  0  0  0
    4.9241    0.9035    1.0057 C   0  0  0  0  0  0  0  0  0  0  0  0
   -4.5429   -0.1656   -0.9690 C   0  0  0  0  0  0  0  0  0  0  0  0
    5.3788   -0.3704    0.6540 C   0  0  0  0  0  0  0  0  0  0  0  0
   -5.1919    0.1375    0.3691 C   0  0  0  0  0  0  0  0  0  0  0  0
   -5.6575   -0.7563    2.4920 C   0  0  0  0  0  0  0  0  0  0  0  0
   -0.7450   -1.9260   -1.4652 H   0  0  0  0  0  0  0  0  0  0  0  0
    0.8802    2.5964    0.9561 H   0  0  0  0  0  0  0  0  0  0  0  0
    0.0347    2.9958   -0.5703 H   0  0  0  0  0  0  0  0  0  0  0  0
   -0.8823    2.4256    0.8694 H   0  0  0  0  0  0  0  0  0  0  0  0
    3.2531    2.2697    1.0823 H   0  0  0  0  0  0  0  0  0  0  0  0
    4.8690   -2.3076   -0.1838 H   0  0  0  0  0  0  0  0  0  0  0  0
   -2.8535   -1.3881   -0.6330 H   0  0  0  0  0  0  0  0  0  0  0  0
    5.6176    1.6182    1.4416 H   0  0  0  0  0  0  0  0  0  0  0  0
   -4.9825   -1.0673   -1.4082 H   0  0  0  0  0  0  0  0  0  0  0  0
   -4.6901    0.6688   -1.6619 H   0  0  0  0  0  0  0  0  0  0  0  0
    6.4212   -0.6300    0.8217 H   0  0  0  0  0  0  0  0  0  0  0  0
   -6.2549    0.3566    0.2169 H   0  0  0  0  0  0  0  0  0  0  0  0
   -4.7151    1.0081    0.8351 H   0  0  0  0  0  0  0  0  0  0  0  0
   -6.7288   -0.5632    2.3806 H   0  0  0  0  0  0  0  0  0  0  0  0
   -5.1726    0.0853    2.9961 H   0  0  0  0  0  0  0  0  0  0  0  0
   -5.5265   -1.6522    3.1049 H   0  0  0  0  0  0  0  0  0  0  0  0
  1  7  1  0  0  0  0
  1 11  1  0  0  0  0
  2 14  2  0  0  0  0
  3 19  1  0  0  0  0
  3 20  1  0  0  0  0
  4  6  1  0  0  0  0
  4  9  1  0  0  0  0
  4 12  1  0  0  0  0
  5 14  1  0  0  0  0
  5 17  1  0  0  0  0
  5 27  1  0  0  0  0
  6  7  2  0  0  0  0
  6  8  1  0  0  0  0
  7 10  1  0  0  0  0
  8 11  1  0  0  0  0
  8 13  2  0  0  0  0
  9 10  2  0  0  0  0
  9 14  1  0  0  0  0
 10 21  1  0  0  0  0
 11 15  2  0  0  0  0
 12 22  1  0  0  0  0
 12 23  1  0  0  0  0
 12 24  1  0  0  0  0
 13 16  1  0  0  0  0
 13 25  1  0  0  0  0
 15 18  1  0  0  0  0
 15 26  1  0  0  0  0
 16 18  2  0  0  0  0
 16 28  1  0  0  0  0
 17 19  1  0  0  0  0
 17 29  1  0  0  0  0
 17 30  1  0  0  0  0
 18 31  1  0  0  0  0
 19 32  1  0  0  0  0
 19 33  1  0  0  0  0
 20 34  1  0  0  0  0
 20 35  1  0  0  0  0
 20 36  1  0  0  0  0
M  END
> <PUBCHEM_COMPOUND_CID>
9550573

> <PUBCHEM_CONFORMER_RMSD>
0.8

> <PUBCHEM_MMFF94_PARTIAL_CHARGES>
26
1 -0.31
10 -0.16
11 0.14
12 0.26
13 -0.15
14 0.71
15 -0.15
16 -0.15
17 0.3
18 -0.15
19 0.28
2 -0.57
20 0.28
21 0.15
25 0.15
26 0.15
27 0.37
28 0.15
3 -0.56
31 0.15
4 -0.04
5 -0.73
6 -0.05
7 0.18
8 -0.01
9 -0.24

> <PUBCHEM_EFFECTIVE_ROTOR_COUNT>
5

> <PUBCHEM_PHARMACOPHORE_FEATURES>
8
1 1 acceptor
1 2 acceptor
1 3 acceptor
1 4 cation
1 5 donor
5 1 6 7 8 11 rings
5 4 6 7 9 10 rings
6 8 11 13 15 16 18 rings

> <PUBCHEM_HEAVY_ATOM_COUNT>
20

> <PUBCHEM_ATOM_DEF_STEREO_COUNT>
0

> <PUBCHEM_ATOM_UDEF_STEREO_COUNT>
0

> <PUBCHEM_BOND_DEF_STEREO_COUNT>
0

> <PUBCHEM_BOND_UDEF_STEREO_COUNT>
0

> <PUBCHEM_ISOTOPIC_ATOM_COUNT>
0

> <PUBCHEM_COMPONENT_COUNT>
1

> <PUBCHEM_CACTVS_TAUTO_COUNT>
2

> <PUBCHEM_CONFORMER_ID>
0091BAED00000001

> <PUBCHEM_MMFF94_ENERGY>
36.0628

> <PUBCHEM_FEATURE_SELFOVERLAP>
-8.08

> <PUBCHEM_SHAPE_MULTIPOLES>
384.02
12.67
1.66
1.4
9.74
-1.51
-7.64
9.46
1.86
0.5
-13.7
4.13
8.66
-4.84

> <PUBCHEM_SHAPE_SELFOVERLAP>
840.566

> <PUBCHEM_SHAPE_VOLUME>
212.4

> <PUBCHEM_COORDINATE_TYPE>
2
5
255

$$$$
2867623
  -OEChem-06081017553D

 37 39  0     1  0  0  0  0  0999 V2000
    0.7776    0.3141    2.6259 Cl  0  0  0  0  0  0  0  0  0  0  0  0
   -0.3637    1.1677   -1.3560 S   0  0  0  0  0  0  0  0  0  0  0  0
    2.2828    2.6860    0.0928 O   0  0  0  0  0  0  0  0  0  0  0  0
   -6.1278   -0.9424    0.2330 O   0  5  0  0  0  0  0  0  0  0  0  0
   -5.5545   -0.1900   -1.7527 O   0  0  0  0  0  0  0  0  0  0  0  0
    3.0112    0.5579   -0.5450 N   0  0  0  0  0  0  0  0  0  0  0  0
   -5.2815   -0.4665   -0.5604 N   0  3  0  0  0  0  0  0  0  0  0  0
    3.5938   -1.7785   -0.0070 C   0  0  1  0  0  0  0  0  0  0  0  0
    5.0812   -1.4103   -0.1325 C   0  0  0  0  0  0  0  0  0  0  0  0
    2.7388   -0.8476   -0.8767 C   0  0  0  0  0  0  0  0  0  0  0  0
    5.3107    0.0721    0.1670 C   0  0  0  0  0  0  0  0  0  0  0  0
    4.4104    0.9579   -0.6896 C   0  0  0  0  0  0  0  0  0  0  0  0
    3.3623   -3.2388   -0.3854 C   0  0  0  0  0  0  0  0  0  0  0  0
    2.0590    1.5018   -0.1538 C   0  0  0  0  0  0  0  0  0  0  0  0
    0.6663    1.0605   -0.0049 C   0  0  0  0  0  0  0  0  0  0  0  0
    0.0284    0.5526    1.0978 C   0  0  0  0  0  0  0  0  0  0  0  0
   -1.3487    0.2357    0.8455 C   0  0  0  0  0  0  0  0  0  0  0  0
   -1.7010    0.5269   -0.4760 C   0  0  0  0  0  0  0  0  0  0  0  0
   -2.3420   -0.3000    1.7006 C   0  0  0  0  0  0  0  0  0  0  0  0
   -3.0049    0.2989   -0.9579 C   0  0  0  0  0  0  0  0  0  0  0  0
   -3.9620   -0.2304   -0.0902 C   0  0  0  0  0  0  0  0  0  0  0  0
   -3.6363   -0.5276    1.2255 C   0  0  0  0  0  0  0  0  0  0  0  0
    3.2963   -1.6444    1.0419 H   0  0  0  0  0  0  0  0  0  0  0  0
    5.4372   -1.6326   -1.1467 H   0  0  0  0  0  0  0  0  0  0  0  0
    5.6789   -2.0185    0.5565 H   0  0  0  0  0  0  0  0  0  0  0  0
    2.9735   -0.9798   -1.9402 H   0  0  0  0  0  0  0  0  0  0  0  0
    1.6828   -1.0940   -0.7479 H   0  0  0  0  0  0  0  0  0  0  0  0
    5.1020    0.2590    1.2278 H   0  0  0  0  0  0  0  0  0  0  0  0
    6.3613    0.3288   -0.0071 H   0  0  0  0  0  0  0  0  0  0  0  0
    4.5468    2.0069   -0.4086 H   0  0  0  0  0  0  0  0  0  0  0  0
    4.6727    0.8637   -1.7500 H   0  0  0  0  0  0  0  0  0  0  0  0
    3.6417   -3.4297   -1.4271 H   0  0  0  0  0  0  0  0  0  0  0  0
    3.9551   -3.9035    0.2518 H   0  0  0  0  0  0  0  0  0  0  0  0
    2.3081   -3.5088   -0.2626 H   0  0  0  0  0  0  0  0  0  0  0  0
   -2.1109   -0.5408    2.7353 H   0  0  0  0  0  0  0  0  0  0  0  0
   -3.2359    0.5396   -1.9923 H   0  0  0  0  0  0  0  0  0  0  0  0
   -4.3625   -0.9404    1.9216 H   0  0  0  0  0  0  0  0  0  0  0  0
  1 16  1  0  0  0  0
  2 15  1  0  0  0  0
  2 18  1  0  0  0  0
  3 14  2  0  0  0  0
  4  7  1  0  0  0  0
  5  7  2  0  0  0  0
  6 10  1  0  0  0  0
  6 12  1  0  0  0  0
  6 14  1  0  0  0  0
  7 21  1  0  0  0  0
  8  9  1  0  0  0  0
  8 10  1  0  0  0  0
  8 13  1  0  0  0  0
  8 23  1  0  0  0  0
  9 11  1  0  0  0  0
  9 24  1  0  0  0  0
  9 25  1  0  0  0  0
 10 26  1  0  0  0  0
 10 27  1  0  0  0  0
 11 12  1  0  0  0  0
 11 28  1  0  0  0  0
 11 29  1  0  0  0  0
 12 30  1  0  0  0  0
 12 31  1  0  0  0  0
 13 32  1  0  0  0  0
 13 33  1  0  0  0  0
 13 34  1  0  0  0  0
 14 15  1  0  0  0  0
 15 16  2  0  0  0  0
 16 17  1  0  0  0  0
 17 18  2  0  0  0  0
 17 19  1  0  0  0  0
 18 20  1  0  0  0  0
 19 22  2  0  0  0  0
 19 35  1  0  0  0  0
 20 21  2  0  0  0  0
 20 36  1  0  0  0  0
 21 22  1  0  0  0  0
 22 37  1  0  0  0  0
M  CHG  2   4  -1   7   1
M  END
> <PUBCHEM_COMPOUND_CID>
2867623

> <PUBCHEM_CONFORMER_RMSD>
0.6

> <PUBCHEM_MMFF94_PARTIAL_CHARGES>
20
1 -0.12
10 0.3
12 0.3
14 0.71
15 -0.05
16 0.12
18 0.04
19 -0.15
2 -0.08
20 -0.15
21 0.13
22 -0.15
3 -0.57
35 0.15
36 0.15
37 0.15
4 -0.52
5 -0.52
6 -0.66
7 0.91

> <PUBCHEM_EFFECTIVE_ROTOR_COUNT>
4.2

> <PUBCHEM_PHARMACOPHORE_FEATURES>
7
1 3 acceptor
1 4 acceptor
1 4 anion
1 5 acceptor
5 2 15 16 17 18 rings
6 17 18 19 20 21 22 rings
6 6 8 9 10 11 12 rings

> <PUBCHEM_HEAVY_ATOM_COUNT>
22

> <PUBCHEM_ATOM_DEF_STEREO_COUNT>
0

> <PUBCHEM_ATOM_UDEF_STEREO_COUNT>
1

> <PUBCHEM_BOND_DEF_STEREO_COUNT>
0

> <PUBCHEM_BOND_UDEF_STEREO_COUNT>
0

> <PUBCHEM_ISOTOPIC_ATOM_COUNT>
0

> <PUBCHEM_COMPONENT_COUNT>
1

> <PUBCHEM_CACTVS_TAUTO_COUNT>
1

> <PUBCHEM_CONFORMER_ID>
002BC1A700000001

> <PUBCHEM_MMFF94_ENERGY>
51.3664

> <PUBCHEM_FEATURE_SELFOVERLAP>
-7.028

> <PUBCHEM_SHAPE_MULTIPOLES>
430.9
12.02
2.02
1.62
4.88
5.79
-2.72
6.17
0.3
-3.83
-5.52
1.76
12.73
11.56

> <PUBCHEM_SHAPE_SELFOVERLAP>
905.948

> <PUBCHEM_SHAPE_VOLUME>
245.8

> <PUBCHEM_COORDINATE_TYPE>
2
5
255

$$$$
2327938
  -OEChem-06081017553D

 53 57  0     0  0  0  0  0  0999 V2000
    3.6065   -0.1723   -1.6966 S   0  0  0  0  0  0  0  0  0  0  0  0
   -2.5153   -0.1555   -1.8403 S   0  0  0  0  0  0  0  0  0  0  0  0
    4.5950   -1.5997    2.4545 O   0  0  0  0  0  0  0  0  0  0  0  0
    3.1816   -1.2272   -2.5918 O   0  0  0  0  0  0  0  0  0  0  0  0
    4.5211    0.8582   -2.1400 O   0  0  0  0  0  0  0  0  0  0  0  0
   -1.2072   -1.1253    1.6112 O   0  0  0  0  0  0  0  0  0  0  0  0
   -1.2312    2.5012    0.4069 N   0  0  0  0  0  0  0  0  0  0  0  0
    4.2123   -0.8713   -0.2559 N   0  0  0  0  0  0  0  0  0  0  0  0
   -1.3876   -0.1589   -0.5281 N   0  0  0  0  0  0  0  0  0  0  0  0
   -2.1551    3.2858   -0.4086 C   0  0  0  0  0  0  0  0  0  0  0  0
   -1.6391    2.4748    1.8094 C   0  0  0  0  0  0  0  0  0  0  0  0
   -3.3519    3.5120    0.5122 C   0  0  0  0  0  0  0  0  0  0  0  0
   -2.7225    3.5475    1.8939 C   0  0  0  0  0  0  0  0  0  0  0  0
   -0.1133    1.8634   -0.0863 C   0  0  0  0  0  0  0  0  0  0  0  0
   -0.1828    0.5497   -0.5501 C   0  0  0  0  0  0  0  0  0  0  0  0
    2.1584    0.6197   -1.0701 C   0  0  0  0  0  0  0  0  0  0  0  0
    3.3023   -1.8422    0.4195 C   0  0  0  0  0  0  0  0  0  0  0  0
    4.7969    0.0872    0.7271 C   0  0  0  0  0  0  0  0  0  0  0  0
    1.0997    2.5509   -0.1180 C   0  0  0  0  0  0  0  0  0  0  0  0
    0.9609   -0.0766   -1.0454 C   0  0  0  0  0  0  0  0  0  0  0  0
    2.2435    1.9249   -0.6135 C   0  0  0  0  0  0  0  0  0  0  0  0
    4.0752   -2.5508    1.5230 C   0  0  0  0  0  0  0  0  0  0  0  0
    5.5073   -0.7028    1.8173 C   0  0  0  0  0  0  0  0  0  0  0  0
   -1.7996   -0.9408    0.5578 C   0  0  0  0  0  0  0  0  0  0  0  0
   -3.1101   -1.5593    0.2779 C   0  0  0  0  0  0  0  0  0  0  0  0
   -3.6105   -1.2235   -0.9727 C   0  0  0  0  0  0  0  0  0  0  0  0
   -3.8096   -2.3949    1.1385 C   0  0  0  0  0  0  0  0  0  0  0  0
   -4.8332   -1.7177   -1.4003 C   0  0  0  0  0  0  0  0  0  0  0  0
   -5.0413   -2.8967    0.7153 C   0  0  0  0  0  0  0  0  0  0  0  0
   -5.5503   -2.5601   -0.5470 C   0  0  0  0  0  0  0  0  0  0  0  0
   -2.4531    2.7808   -1.3305 H   0  0  0  0  0  0  0  0  0  0  0  0
   -1.6884    4.2420   -0.6724 H   0  0  0  0  0  0  0  0  0  0  0  0
   -0.8083    2.7010    2.4857 H   0  0  0  0  0  0  0  0  0  0  0  0
   -2.0517    1.4951    2.0686 H   0  0  0  0  0  0  0  0  0  0  0  0
   -4.0449    2.6649    0.4399 H   0  0  0  0  0  0  0  0  0  0  0  0
   -3.9005    4.4262    0.2692 H   0  0  0  0  0  0  0  0  0  0  0  0
   -2.2657    4.5288    2.0707 H   0  0  0  0  0  0  0  0  0  0  0  0
   -3.4409    3.3545    2.6954 H   0  0  0  0  0  0  0  0  0  0  0  0
    2.9301   -2.5821   -0.2950 H   0  0  0  0  0  0  0  0  0  0  0  0
    2.4605   -1.3123    0.8757 H   0  0  0  0  0  0  0  0  0  0  0  0
    4.0004    0.6853    1.1808 H   0  0  0  0  0  0  0  0  0  0  0  0
    5.5172    0.7496    0.2384 H   0  0  0  0  0  0  0  0  0  0  0  0
    1.1674    3.5749    0.2413 H   0  0  0  0  0  0  0  0  0  0  0  0
    0.8988   -1.1012   -1.4023 H   0  0  0  0  0  0  0  0  0  0  0  0
    3.1783    2.4769   -0.6267 H   0  0  0  0  0  0  0  0  0  0  0  0
    3.4113   -3.2268    2.0709 H   0  0  0  0  0  0  0  0  0  0  0  0
    4.8999   -3.1485    1.1166 H   0  0  0  0  0  0  0  0  0  0  0  0
    6.3542   -1.2718    1.4153 H   0  0  0  0  0  0  0  0  0  0  0  0
    5.8949   -0.0218    2.5814 H   0  0  0  0  0  0  0  0  0  0  0  0
   -3.4197   -2.6580    2.1161 H   0  0  0  0  0  0  0  0  0  0  0  0
   -5.2353   -1.4625   -2.3756 H   0  0  0  0  0  0  0  0  0  0  0  0
   -5.6108   -3.5529    1.3677 H   0  0  0  0  0  0  0  0  0  0  0  0
   -6.5106   -2.9581   -0.8632 H   0  0  0  0  0  0  0  0  0  0  0  0
  1  4  2  0  0  0  0
  1  5  2  0  0  0  0
  1  8  1  0  0  0  0
  1 16  1  0  0  0  0
  2  9  1  0  0  0  0
  2 26  1  0  0  0  0
  3 22  1  0  0  0  0
  3 23  1  0  0  0  0
  6 24  2  0  0  0  0
  7 10  1  0  0  0  0
  7 11  1  0  0  0  0
  7 14  1  0  0  0  0
  8 17  1  0  0  0  0
  8 18  1  0  0  0  0
  9 15  1  0  0  0  0
  9 24  1  0  0  0  0
 10 12  1  0  0  0  0
 10 31  1  0  0  0  0
 10 32  1  0  0  0  0
 11 13  1  0  0  0  0
 11 33  1  0  0  0  0
 11 34  1  0  0  0  0
 12 13  1  0  0  0  0
 12 35  1  0  0  0  0
 12 36  1  0  0  0  0
 13 37  1  0  0  0  0
 13 38  1  0  0  0  0
 14 15  2  0  0  0  0
 14 19  1  0  0  0  0
 15 20  1  0  0  0  0
 16 20  2  0  0  0  0
 16 21  1  0  0  0  0
 17 22  1  0  0  0  0
 17 39  1  0  0  0  0
 17 40  1  0  0  0  0
 18 23  1  0  0  0  0
 18 41  1  0  0  0  0
 18 42  1  0  0  0  0
 19 21  2  0  0  0  0
 19 43  1  0  0  0  0
 20 44  1  0  0  0  0
 21 45  1  0  0  0  0
 22 46  1  0  0  0  0
 22 47  1  0  0  0  0
 23 48  1  0  0  0  0
 23 49  1  0  0  0  0
 24 25  1  0  0  0  0
 25 26  1  0  0  0  0
 25 27  2  0  0  0  0
 26 28  2  0  0  0  0
 27 29  1  0  0  0  0
 27 50  1  0  0  0  0
 28 30  1  0  0  0  0
 28 51  1  0  0  0  0
 29 30  2  0  0  0  0
 29 52  1  0  0  0  0
 30 53  1  0  0  0  0
M  END
> <PUBCHEM_COMPOUND_CID>
2327938

> <PUBCHEM_CONFORMER_RMSD>
0.8

> <PUBCHEM_MMFF94_PARTIAL_CHARGES>
35
1 1.45
10 0.37
11 0.37
14 0.1
15 0.12
16 -0.01
17 0.36
18 0.36
19 -0.15
2 -0.09
20 -0.15
21 -0.15
22 0.28
23 0.28
24 0.54
25 0.09
26 0.1
27 -0.15
28 -0.15
29 -0.15
3 -0.56
30 -0.15
4 -0.65
43 0.15
44 0.15
45 0.15
5 -0.65
50 0.15
51 0.15
52 0.15
53 0.15
6 -0.57
7 -0.84
8 -0.85
9 -0.19

> <PUBCHEM_EFFECTIVE_ROTOR_COUNT>
6.2

> <PUBCHEM_PHARMACOPHORE_FEATURES>
10
1 3 acceptor
1 4 acceptor
1 5 acceptor
1 6 acceptor
1 7 cation
5 2 9 24 25 26 rings
5 7 10 11 12 13 rings
6 14 15 16 19 20 21 rings
6 25 26 27 28 29 30 rings
6 3 8 17 18 22 23 rings

> <PUBCHEM_HEAVY_ATOM_COUNT>
30

> <PUBCHEM_ATOM_DEF_STEREO_COUNT>
0

> <PUBCHEM_ATOM_UDEF_STEREO_COUNT>
0

> <PUBCHEM_BOND_DEF_STEREO_COUNT>
0

> <PUBCHEM_BOND_UDEF_STEREO_COUNT>
0

> <PUBCHEM_ISOTOPIC_ATOM_COUNT>
0

> <PUBCHEM_COMPONENT_COUNT>
1

> <PUBCHEM_CACTVS_TAUTO_COUNT>
1

> <PUBCHEM_CONFORMER_ID>
0023858200000001

> <PUBCHEM_MMFF94_ENERGY>
104.0164

> <PUBCHEM_FEATURE_SELFOVERLAP>
-10.016

> <PUBCHEM_SHAPE_MULTIPOLES>
586.66
11.67
4.28
2.14
0.82
-7.17
3.49
-5.3
4.97
3.31
-0.82
-8.5
16.15
-26.35

> <PUBCHEM_SHAPE_SELFOVERLAP>
1254.038

> <PUBCHEM_SHAPE_VOLUME>
327.7

> <PUBCHEM_COORDINATE_TYPE>
2
5
255

$$$$
2053883
  -OEChem-06081017553D

 34 36  0     0  0  0  0  0  0999 V2000
    0.9423   -2.1539   -1.5215 Cl  0  0  0  0  0  0  0  0  0  0  0  0
   -0.1484    1.6956   -0.1512 S   0  0  0  0  0  0  0  0  0  0  0  0
    2.6300    1.2182   -2.0890 O   0  0  0  0  0  0  0  0  0  0  0  0
   -6.0088   -0.6205    0.5760 O   0  5  0  0  0  0  0  0  0  0  0  0
   -5.3977    1.4400    1.0233 O   0  0  0  0  0  0  0  0  0  0  0  0
    3.1733    0.5977    0.0745 N   0  0  0  0  0  0  0  0  0  0  0  0
   -5.1358    0.2790    0.6267 N   0  3  0  0  0  0  0  0  0  0  0  0
    5.1281   -0.7736    1.7017 C   0  0  0  0  0  0  0  0  0  0  0  0
    5.4572   -0.2932    0.2883 C   0  0  0  0  0  0  0  0  0  0  0  0
    3.6305   -1.0382    1.8585 C   0  0  0  0  0  0  0  0  0  0  0  0
    4.5942    0.9025   -0.1086 C   0  0  0  0  0  0  0  0  0  0  0  0
    2.8116    0.1783    1.4364 C   0  0  0  0  0  0  0  0  0  0  0  0
    2.2729    0.7936   -0.9888 C   0  0  0  0  0  0  0  0  0  0  0  0
    0.8715    0.4705   -0.7478 C   0  0  0  0  0  0  0  0  0  0  0  0
    0.2088   -0.7161   -0.9315 C   0  0  0  0  0  0  0  0  0  0  0  0
   -1.1800   -0.6366   -0.5778 C   0  0  0  0  0  0  0  0  0  0  0  0
   -1.5153    0.6446   -0.1291 C   0  0  0  0  0  0  0  0  0  0  0  0
   -2.1985   -1.6193   -0.6185 C   0  0  0  0  0  0  0  0  0  0  0  0
   -2.8266    0.9639    0.2747 C   0  0  0  0  0  0  0  0  0  0  0  0
   -3.8088   -0.0269    0.2225 C   0  0  0  0  0  0  0  0  0  0  0  0
   -3.5002   -1.3057   -0.2187 C   0  0  0  0  0  0  0  0  0  0  0  0
    5.6924   -1.6857    1.9253 H   0  0  0  0  0  0  0  0  0  0  0  0
    5.4425   -0.0138    2.4277 H   0  0  0  0  0  0  0  0  0  0  0  0
    6.5175   -0.0261    0.2228 H   0  0  0  0  0  0  0  0  0  0  0  0
    5.2847   -1.1152   -0.4177 H   0  0  0  0  0  0  0  0  0  0  0  0
    3.3506   -1.8995    1.2392 H   0  0  0  0  0  0  0  0  0  0  0  0
    3.4053   -1.2979    2.8986 H   0  0  0  0  0  0  0  0  0  0  0  0
    4.8273    1.7709    0.5187 H   0  0  0  0  0  0  0  0  0  0  0  0
    4.8057    1.1809   -1.1456 H   0  0  0  0  0  0  0  0  0  0  0  0
    1.7500   -0.0588    1.5232 H   0  0  0  0  0  0  0  0  0  0  0  0
    3.0110    1.0266    2.1019 H   0  0  0  0  0  0  0  0  0  0  0  0
   -1.9813   -2.6282   -0.9606 H   0  0  0  0  0  0  0  0  0  0  0  0
   -3.0441    1.9724    0.6169 H   0  0  0  0  0  0  0  0  0  0  0  0
   -4.2464   -2.0951   -0.2685 H   0  0  0  0  0  0  0  0  0  0  0  0
  1 15  1  0  0  0  0
  2 14  1  0  0  0  0
  2 17  1  0  0  0  0
  3 13  2  0  0  0  0
  4  7  1  0  0  0  0
  5  7  2  0  0  0  0
  6 11  1  0  0  0  0
  6 12  1  0  0  0  0
  6 13  1  0  0  0  0
  7 20  1  0  0  0  0
  8  9  1  0  0  0  0
  8 10  1  0  0  0  0
  8 22  1  0  0  0  0
  8 23  1  0  0  0  0
  9 11  1  0  0  0  0
  9 24  1  0  0  0  0
  9 25  1  0  0  0  0
 10 12  1  0  0  0  0
 10 26  1  0  0  0  0
 10 27  1  0  0  0  0
 11 28  1  0  0  0  0
 11 29  1  0  0  0  0
 12 30  1  0  0  0  0
 12 31  1  0  0  0  0
 13 14  1  0  0  0  0
 14 15  2  0  0  0  0
 15 16  1  0  0  0  0
 16 17  2  0  0  0  0
 16 18  1  0  0  0  0
 17 19  1  0  0  0  0
 18 21  2  0  0  0  0
 18 32  1  0  0  0  0
 19 20  2  0  0  0  0
 19 33  1  0  0  0  0
 20 21  1  0  0  0  0
 21 34  1  0  0  0  0
M  CHG  2   4  -1   7   1
M  END
> <PUBCHEM_COMPOUND_CID>
2053883

> <PUBCHEM_CONFORMER_RMSD>
0.6

> <PUBCHEM_MMFF94_PARTIAL_CHARGES>
20
1 -0.12
11 0.3
12 0.3
13 0.71
14 -0.05
15 0.12
17 0.04
18 -0.15
19 -0.15
2 -0.08
20 0.13
21 -0.15
3 -0.57
32 0.15
33 0.15
34 0.15
4 -0.52
5 -0.52
6 -0.66
7 0.91

> <PUBCHEM_EFFECTIVE_ROTOR_COUNT>
4.2

> <PUBCHEM_PHARMACOPHORE_FEATURES>
7
1 3 acceptor
1 4 acceptor
1 4 anion
1 5 acceptor
5 2 14 15 16 17 rings
6 16 17 18 19 20 21 rings
6 6 8 9 10 11 12 rings

> <PUBCHEM_HEAVY_ATOM_COUNT>
21

> <PUBCHEM_ATOM_DEF_STEREO_COUNT>
0

> <PUBCHEM_ATOM_UDEF_STEREO_COUNT>
0

> <PUBCHEM_BOND_DEF_STEREO_COUNT>
0

> <PUBCHEM_BOND_UDEF_STEREO_COUNT>
0

> <PUBCHEM_ISOTOPIC_ATOM_COUNT>
0

> <PUBCHEM_COMPONENT_COUNT>
1

> <PUBCHEM_CACTVS_TAUTO_COUNT>
1

> <PUBCHEM_CONFORMER_ID>
001F56FB00000002

> <PUBCHEM_MMFF94_ENERGY>
46.8326

> <PUBCHEM_FEATURE_SELFOVERLAP>
-7.028

> <PUBCHEM_SHAPE_MULTIPOLES>
410.32
12
1.69
1.53
3.02
-0.56
5.68
-8.25
-7.93
0.53
12.37
-3.37
1.51
-3.25

> <PUBCHEM_SHAPE_SELFOVERLAP>
865.142

> <PUBCHEM_SHAPE_VOLUME>
232.9

> <PUBCHEM_COORDINATE_TYPE>
2
5
255

$$$$
1153922
  -OEChem-06081017553D

 46 48  0     0  0  0  0  0  0999 V2000
    8.9286    0.2620   -0.2736 Cl  0  0  0  0  0  0  0  0  0  0  0  0
    2.6945    0.8366    0.3641 S   0  0  0  0  0  0  0  0  0  0  0  0
   -3.9538   -2.5890   -0.4007 O   0  0  0  0  0  0  0  0  0  0  0  0
   -4.3083   -0.4238    0.4071 N   0  0  0  0  0  0  0  0  0  0  0  0
   -5.9481    1.9474    0.1309 C   0  0  0  0  0  0  0  0  0  0  0  0
   -6.4292    0.5672   -0.3452 C   0  0  0  0  0  0  0  0  0  0  0  0
   -4.4126    2.0168    0.1071 C   0  0  0  0  0  0  0  0  0  0  0  0
   -5.7641   -0.5569    0.4467 C   0  0  0  0  0  0  0  0  0  0  0  0
   -3.7978    0.8630    0.8962 C   0  0  0  0  0  0  0  0  0  0  0  0
   -6.5550    3.0581   -0.7230 C   0  0  0  0  0  0  0  0  0  0  0  0
   -3.5278   -1.4964   -0.0297 C   0  0  0  0  0  0  0  0  0  0  0  0
   -2.0705   -1.3218   -0.0693 C   0  0  0  0  0  0  0  0  0  0  0  0
   -1.3031   -1.6439    1.0473 C   0  0  0  0  0  0  0  0  0  0  0  0
   -1.4623   -0.8364   -1.2242 C   0  0  0  0  0  0  0  0  0  0  0  0
    0.6943   -0.9937   -0.1465 C   0  0  0  0  0  0  0  0  0  0  0  0
    0.0816   -1.4794    1.0086 C   0  0  0  0  0  0  0  0  0  0  0  0
   -0.0776   -0.6721   -1.2629 C   0  0  0  0  0  0  0  0  0  0  0  0
    2.1747   -0.8170   -0.1868 C   0  0  0  0  0  0  0  0  0  0  0  0
    4.4437    0.6750    0.1849 C   0  0  0  0  0  0  0  0  0  0  0  0
    5.0105    0.3923   -1.0672 C   0  0  0  0  0  0  0  0  0  0  0  0
    5.2918    0.8275    1.2925 C   0  0  0  0  0  0  0  0  0  0  0  0
    6.3925    0.2651   -1.2084 C   0  0  0  0  0  0  0  0  0  0  0  0
    6.6738    0.7004    1.1513 C   0  0  0  0  0  0  0  0  0  0  0  0
    7.2240    0.4191   -0.0991 C   0  0  0  0  0  0  0  0  0  0  0  0
   -6.2850    2.0928    1.1660 H   0  0  0  0  0  0  0  0  0  0  0  0
   -6.1940    0.4438   -1.4104 H   0  0  0  0  0  0  0  0  0  0  0  0
   -7.5181    0.4917   -0.2442 H   0  0  0  0  0  0  0  0  0  0  0  0
   -4.0720    2.9704    0.5270 H   0  0  0  0  0  0  0  0  0  0  0  0
   -4.0572    1.9741   -0.9306 H   0  0  0  0  0  0  0  0  0  0  0  0
   -6.0702   -0.5205    1.4988 H   0  0  0  0  0  0  0  0  0  0  0  0
   -6.0772   -1.5265    0.0467 H   0  0  0  0  0  0  0  0  0  0  0  0
   -2.7093    0.9201    0.8330 H   0  0  0  0  0  0  0  0  0  0  0  0
   -4.0653    0.9377    1.9569 H   0  0  0  0  0  0  0  0  0  0  0  0
   -7.6489    3.0252   -0.6817 H   0  0  0  0  0  0  0  0  0  0  0  0
   -6.2351    4.0419   -0.3640 H   0  0  0  0  0  0  0  0  0  0  0  0
   -6.2528    2.9655   -1.7716 H   0  0  0  0  0  0  0  0  0  0  0  0
   -1.7712   -2.0227    1.9520 H   0  0  0  0  0  0  0  0  0  0  0  0
   -2.0553   -0.5821   -2.0987 H   0  0  0  0  0  0  0  0  0  0  0  0
    0.6711   -1.7325    1.8859 H   0  0  0  0  0  0  0  0  0  0  0  0
    0.3868   -0.2912   -2.1687 H   0  0  0  0  0  0  0  0  0  0  0  0
    2.6582   -1.5715    0.4457 H   0  0  0  0  0  0  0  0  0  0  0  0
    2.5300   -1.0003   -1.2072 H   0  0  0  0  0  0  0  0  0  0  0  0
    4.3872    0.2796   -1.9514 H   0  0  0  0  0  0  0  0  0  0  0  0
    4.8838    1.0467    2.2768 H   0  0  0  0  0  0  0  0  0  0  0  0
    6.8077    0.0485   -2.1893 H   0  0  0  0  0  0  0  0  0  0  0  0
    7.3096    0.8229    2.0244 H   0  0  0  0  0  0  0  0  0  0  0  0
  1 24  1  0  0  0  0
  2 18  1  0  0  0  0
  2 19  1  0  0  0  0
  3 11  2  0  0  0  0
  4  8  1  0  0  0  0
  4  9  1  0  0  0  0
  4 11  1  0  0  0  0
  5  6  1  0  0  0  0
  5  7  1  0  0  0  0
  5 10  1  0  0  0  0
  5 25  1  0  0  0  0
  6  8  1  0  0  0  0
  6 26  1  0  0  0  0
  6 27  1  0  0  0  0
  7  9  1  0  0  0  0
  7 28  1  0  0  0  0
  7 29  1  0  0  0  0
  8 30  1  0  0  0  0
  8 31  1  0  0  0  0
  9 32  1  0  0  0  0
  9 33  1  0  0  0  0
 10 34  1  0  0  0  0
 10 35  1  0  0  0  0
 10 36  1  0  0  0  0
 11 12  1  0  0  0  0
 12 13  2  0  0  0  0
 12 14  1  0  0  0  0
 13 16  1  0  0  0  0
 13 37  1  0  0  0  0
 14 17  2  0  0  0  0
 14 38  1  0  0  0  0
 15 16  2  0  0  0  0
 15 17  1  0  0  0  0
 15 18  1  0  0  0  0
 16 39  1  0  0  0  0
 17 40  1  0  0  0  0
 18 41  1  0  0  0  0
 18 42  1  0  0  0  0
 19 20  2  0  0  0  0
 19 21  1  0  0  0  0
 20 22  1  0  0  0  0
 20 43  1  0  0  0  0
 21 23  2  0  0  0  0
 21 44  1  0  0  0  0
 22 24  2  0  0  0  0
 22 45  1  0  0  0  0
 23 24  1  0  0  0  0
 23 46  1  0  0  0  0
M  END
> <PUBCHEM_COMPOUND_CID>
1153922

> <PUBCHEM_CONFORMER_RMSD>
0.8

> <PUBCHEM_MMFF94_PARTIAL_CHARGES>
28
1 -0.18
11 0.54
12 0.09
13 -0.15
14 -0.15
15 -0.14
16 -0.15
17 -0.15
18 0.37
19 0.1
2 -0.33
20 -0.15
21 -0.15
22 -0.15
23 -0.15
24 0.18
3 -0.57
37 0.15
38 0.15
39 0.15
4 -0.66
40 0.15
43 0.15
44 0.15
45 0.15
46 0.15
8 0.3
9 0.3

> <PUBCHEM_EFFECTIVE_ROTOR_COUNT>
6.2

> <PUBCHEM_PHARMACOPHORE_FEATURES>
4
1 3 acceptor
6 12 13 14 15 16 17 rings
6 19 20 21 22 23 24 rings
6 4 5 6 7 8 9 rings

> <PUBCHEM_HEAVY_ATOM_COUNT>
24

> <PUBCHEM_ATOM_DEF_STEREO_COUNT>
0

> <PUBCHEM_ATOM_UDEF_STEREO_COUNT>
0

> <PUBCHEM_BOND_DEF_STEREO_COUNT>
0

> <PUBCHEM_BOND_UDEF_STEREO_COUNT>
0

> <PUBCHEM_ISOTOPIC_ATOM_COUNT>
0

> <PUBCHEM_COMPONENT_COUNT>
1

> <PUBCHEM_CACTVS_TAUTO_COUNT>
1

> <PUBCHEM_CONFORMER_ID>
00119B8200000002

> <PUBCHEM_MMFF94_ENERGY>
58.1557

> <PUBCHEM_FEATURE_SELFOVERLAP>
-4

> <PUBCHEM_SHAPE_MULTIPOLES>
488.78
23.49
2.22
1.16
21.31
13.65
-1.03
1.48
-10.39
-8.43
-1.61
2.64
33.25
30.74

> <PUBCHEM_SHAPE_SELFOVERLAP>
1010.702

> <PUBCHEM_SHAPE_VOLUME>
280

> <PUBCHEM_COORDINATE_TYPE>
2
5
255

$$$$
1245039
  -OEChem-06081017553D

 44 46  0     0  0  0  0  0  0999 V2000
   -4.3850    2.2614   -0.0661 O   0  0  0  0  0  0  0  0  0  0  0  0
    4.2113    1.7349    0.1865 O   0  0  0  0  0  0  0  0  0  0  0  0
    2.0316   -0.2220    1.8335 O   0  0  0  0  0  0  0  0  0  0  0  0
   -4.9634    0.0147    0.0338 N   0  0  0  0  0  0  0  0  0  0  0  0
    1.4276   -0.1715   -0.4247 N   0  0  0  0  0  0  0  0  0  0  0  0
   -5.9761   -2.0953   -0.2431 C   0  0  0  0  0  0  0  0  0  0  0  0
   -6.9932   -1.1351    0.3604 C   0  0  0  0  0  0  0  0  0  0  0  0
   -4.6483   -1.4124    0.0532 C   0  0  0  0  0  0  0  0  0  0  0  0
   -6.4033    0.2285    0.0363 C   0  0  0  0  0  0  0  0  0  0  0  0
   -4.0719    1.0726   -0.0532 C   0  0  0  0  0  0  0  0  0  0  0  0
   -2.6393    0.7496   -0.1501 C   0  0  0  0  0  0  0  0  0  0  0  0
   -2.0533    0.5721   -1.4000 C   0  0  0  0  0  0  0  0  0  0  0  0
   -1.8793    0.6225    1.0092 C   0  0  0  0  0  0  0  0  0  0  0  0
    0.0701    0.1367   -0.3327 C   0  0  0  0  0  0  0  0  0  0  0  0
   -0.6957    0.2649   -1.4915 C   0  0  0  0  0  0  0  0  0  0  0  0
   -0.5217    0.3154    0.9177 C   0  0  0  0  0  0  0  0  0  0  0  0
    2.3104   -0.3294    0.6433 C   0  0  0  0  0  0  0  0  0  0  0  0
    3.6994   -0.6078    0.2378 C   0  0  0  0  0  0  0  0  0  0  0  0
    4.5883    0.4348    0.0274 C   0  0  0  0  0  0  0  0  0  0  0  0
    4.0883   -1.9284    0.0730 C   0  0  0  0  0  0  0  0  0  0  0  0
    5.8985    0.1501   -0.3571 C   0  0  0  0  0  0  0  0  0  0  0  0
    5.3986   -2.2131   -0.3117 C   0  0  0  0  0  0  0  0  0  0  0  0
    6.3036   -1.1739   -0.5269 C   0  0  0  0  0  0  0  0  0  0  0  0
    5.2029    2.7307   -0.0549 C   0  0  0  0  0  0  0  0  0  0  0  0
   -6.0351   -3.1025    0.1782 H   0  0  0  0  0  0  0  0  0  0  0  0
   -6.1298   -2.1648   -1.3269 H   0  0  0  0  0  0  0  0  0  0  0  0
   -8.0000   -1.2664   -0.0452 H   0  0  0  0  0  0  0  0  0  0  0  0
   -7.0377   -1.2773    1.4469 H   0  0  0  0  0  0  0  0  0  0  0  0
   -4.2855   -1.6586    1.0570 H   0  0  0  0  0  0  0  0  0  0  0  0
   -3.8763   -1.6637   -0.6785 H   0  0  0  0  0  0  0  0  0  0  0  0
   -6.6929    0.5652   -0.9654 H   0  0  0  0  0  0  0  0  0  0  0  0
   -6.6792    1.0004    0.7609 H   0  0  0  0  0  0  0  0  0  0  0  0
   -2.6418    0.6694   -2.3085 H   0  0  0  0  0  0  0  0  0  0  0  0
   -2.3335    0.7597    1.9871 H   0  0  0  0  0  0  0  0  0  0  0  0
   -0.2475    0.1278   -2.4724 H   0  0  0  0  0  0  0  0  0  0  0  0
   -0.0162    0.2370    1.8679 H   0  0  0  0  0  0  0  0  0  0  0  0
    1.7981   -0.2830   -1.3661 H   0  0  0  0  0  0  0  0  0  0  0  0
    3.3901   -2.7443    0.2384 H   0  0  0  0  0  0  0  0  0  0  0  0
    6.6567    0.9032   -0.5423 H   0  0  0  0  0  0  0  0  0  0  0  0
    5.7140   -3.2439   -0.4438 H   0  0  0  0  0  0  0  0  0  0  0  0
    7.3236   -1.3969   -0.8265 H   0  0  0  0  0  0  0  0  0  0  0  0
    5.5380    2.7232   -1.0977 H   0  0  0  0  0  0  0  0  0  0  0  0
    6.0355    2.6523    0.6527 H   0  0  0  0  0  0  0  0  0  0  0  0
    4.7307    3.7034    0.1187 H   0  0  0  0  0  0  0  0  0  0  0  0
  1 10  2  0  0  0  0
  2 19  1  0  0  0  0
  2 24  1  0  0  0  0
  3 17  2  0  0  0  0
  4  8  1  0  0  0  0
  4  9  1  0  0  0  0
  4 10  1  0  0  0  0
  5 14  1  0  0  0  0
  5 17  1  0  0  0  0
  5 37  1  0  0  0  0
  6  7  1  0  0  0  0
  6  8  1  0  0  0  0
  6 25  1  0  0  0  0
  6 26  1  0  0  0  0
  7  9  1  0  0  0  0
  7 27  1  0  0  0  0
  7 28  1  0  0  0  0
  8 29  1  0  0  0  0
  8 30  1  0  0  0  0
  9 31  1  0  0  0  0
  9 32  1  0  0  0  0
 10 11  1  0  0  0  0
 11 12  2  0  0  0  0
 11 13  1  0  0  0  0
 12 15  1  0  0  0  0
 12 33  1  0  0  0  0
 13 16  2  0  0  0  0
 13 34  1  0  0  0  0
 14 15  2  0  0  0  0
 14 16  1  0  0  0  0
 15 35  1  0  0  0  0
 16 36  1  0  0  0  0
 17 18  1  0  0  0  0
 18 19  1  0  0  0  0
 18 20  2  0  0  0  0
 19 21  2  0  0  0  0
 20 22  1  0  0  0  0
 20 38  1  0  0  0  0
 21 23  1  0  0  0  0
 21 39  1  0  0  0  0
 22 23  2  0  0  0  0
 22 40  1  0  0  0  0
 23 41  1  0  0  0  0
 24 42  1  0  0  0  0
 24 43  1  0  0  0  0
 24 44  1  0  0  0  0
M  END
> <PUBCHEM_COMPOUND_CID>
1245039

> <PUBCHEM_CONFORMER_RMSD>
0.8

> <PUBCHEM_MMFF94_PARTIAL_CHARGES>
31
1 -0.57
10 0.54
11 0.09
12 -0.15
13 -0.15
14 0.12
15 -0.15
16 -0.15
17 0.54
18 0.09
19 0.08
2 -0.36
20 -0.15
21 -0.15
22 -0.15
23 -0.15
24 0.28
3 -0.57
33 0.15
34 0.15
35 0.15
36 0.15
37 0.37
38 0.15
39 0.15
4 -0.66
40 0.15
41 0.15
5 -0.55
8 0.3
9 0.3

> <PUBCHEM_EFFECTIVE_ROTOR_COUNT>
7

> <PUBCHEM_PHARMACOPHORE_FEATURES>
7
1 1 acceptor
1 2 acceptor
1 3 acceptor
1 5 donor
5 4 6 7 8 9 rings
6 11 12 13 14 15 16 rings
6 18 19 20 21 22 23 rings

> <PUBCHEM_HEAVY_ATOM_COUNT>
24

> <PUBCHEM_ATOM_DEF_STEREO_COUNT>
0

> <PUBCHEM_ATOM_UDEF_STEREO_COUNT>
0

> <PUBCHEM_BOND_DEF_STEREO_COUNT>
0

> <PUBCHEM_BOND_UDEF_STEREO_COUNT>
0

> <PUBCHEM_ISOTOPIC_ATOM_COUNT>
0

> <PUBCHEM_COMPONENT_COUNT>
1

> <PUBCHEM_CACTVS_TAUTO_COUNT>
3

> <PUBCHEM_CONFORMER_ID>
0012FF6F00000004

> <PUBCHEM_MMFF94_ENERGY>
87.5939

> <PUBCHEM_FEATURE_SELFOVERLAP>
-7

> <PUBCHEM_SHAPE_MULTIPOLES>
466.34
18.97
2.11
1.04
5.09
-4.91
0.68
-1.06
-3.11
3.19
0.98
1.15
8.59
-12.43

> <PUBCHEM_SHAPE_SELFOVERLAP>
1005.728

> <PUBCHEM_SHAPE_VOLUME>
257.2

> <PUBCHEM_COORDINATE_TYPE>
2
5
255

$$$$
1039688
  -OEChem-06081017553D

 43 45  0     0  0  0  0  0  0999 V2000
   -8.4679   -0.4644   -0.9238 Br  0  0  0  0  0  0  0  0  0  0  0  0
    4.2506    2.2847    0.5817 O   0  0  0  0  0  0  0  0  0  0  0  0
   -2.2596   -0.5282    1.8304 O   0  0  0  0  0  0  0  0  0  0  0  0
    4.7055    0.1794   -0.3280 N   0  0  0  0  0  0  0  0  0  0  0  0
   -1.7133    0.4605   -0.2316 N   0  0  0  0  0  0  0  0  0  0  0  0
    6.1553   -2.3118   -0.1636 C   0  0  0  0  0  0  0  0  0  0  0  0
    6.7269   -1.0152    0.4109 C   0  0  0  0  0  0  0  0  0  0  0  0
    4.6272   -2.2748   -0.1927 C   0  0  0  0  0  0  0  0  0  0  0  0
    6.1744    0.2026   -0.3248 C   0  0  0  0  0  0  0  0  0  0  0  0
    4.1153   -1.0272   -0.9083 C   0  0  0  0  0  0  0  0  0  0  0  0
    3.8744    1.2086    0.1195 C   0  0  0  0  0  0  0  0  0  0  0  0
    2.4218    1.0146    0.0290 C   0  0  0  0  0  0  0  0  0  0  0  0
    1.7321    0.4385    1.0926 C   0  0  0  0  0  0  0  0  0  0  0  0
    1.7413    1.4068   -1.1208 C   0  0  0  0  0  0  0  0  0  0  0  0
   -0.3331    0.6452   -0.1443 C   0  0  0  0  0  0  0  0  0  0  0  0
    0.3522    0.2535    1.0057 C   0  0  0  0  0  0  0  0  0  0  0  0
    0.3615    1.2219   -1.2076 C   0  0  0  0  0  0  0  0  0  0  0  0
   -2.5714   -0.0962    0.7259 C   0  0  0  0  0  0  0  0  0  0  0  0
   -4.0005   -0.1842    0.3263 C   0  0  0  0  0  0  0  0  0  0  0  0
   -4.9683   -0.1691    1.3085 C   0  0  0  0  0  0  0  0  0  0  0  0
   -4.3116   -0.2793   -1.0139 C   0  0  0  0  0  0  0  0  0  0  0  0
   -6.3092   -0.2531    0.9333 C   0  0  0  0  0  0  0  0  0  0  0  0
   -5.6525   -0.3629   -1.3891 C   0  0  0  0  0  0  0  0  0  0  0  0
   -6.6513   -0.3499   -0.4155 C   0  0  0  0  0  0  0  0  0  0  0  0
    6.5363   -2.4587   -1.1816 H   0  0  0  0  0  0  0  0  0  0  0  0
    6.4953   -3.1650    0.4337 H   0  0  0  0  0  0  0  0  0  0  0  0
    6.4647   -0.9485    1.4742 H   0  0  0  0  0  0  0  0  0  0  0  0
    7.8203   -1.0271    0.3455 H   0  0  0  0  0  0  0  0  0  0  0  0
    4.2446   -3.1734   -0.6892 H   0  0  0  0  0  0  0  0  0  0  0  0
    4.2477   -2.2853    0.8367 H   0  0  0  0  0  0  0  0  0  0  0  0
    6.5211    1.1250    0.1520 H   0  0  0  0  0  0  0  0  0  0  0  0
    6.5089    0.2155   -1.3683 H   0  0  0  0  0  0  0  0  0  0  0  0
    4.4191   -1.0525   -1.9626 H   0  0  0  0  0  0  0  0  0  0  0  0
    3.0261   -1.0530   -0.9037 H   0  0  0  0  0  0  0  0  0  0  0  0
    2.2585    0.1294    1.9920 H   0  0  0  0  0  0  0  0  0  0  0  0
    2.2736    1.8565   -1.9549 H   0  0  0  0  0  0  0  0  0  0  0  0
   -0.1131   -0.1997    1.8696 H   0  0  0  0  0  0  0  0  0  0  0  0
   -0.1591    1.5317   -2.1102 H   0  0  0  0  0  0  0  0  0  0  0  0
   -2.1198    0.8203   -1.0904 H   0  0  0  0  0  0  0  0  0  0  0  0
   -4.7195   -0.0883    2.3625 H   0  0  0  0  0  0  0  0  0  0  0  0
   -3.5675   -0.3351   -1.8013 H   0  0  0  0  0  0  0  0  0  0  0  0
   -7.0753   -0.2403    1.7042 H   0  0  0  0  0  0  0  0  0  0  0  0
   -5.9023   -0.4472   -2.4437 H   0  0  0  0  0  0  0  0  0  0  0  0
  1 24  1  0  0  0  0
  2 11  2  0  0  0  0
  3 18  2  0  0  0  0
  4  9  1  0  0  0  0
  4 10  1  0  0  0  0
  4 11  1  0  0  0  0
  5 15  1  0  0  0  0
  5 18  1  0  0  0  0
  5 39  1  0  0  0  0
  6  7  1  0  0  0  0
  6  8  1  0  0  0  0
  6 25  1  0  0  0  0
  6 26  1  0  0  0  0
  7  9  1  0  0  0  0
  7 27  1  0  0  0  0
  7 28  1  0  0  0  0
  8 10  1  0  0  0  0
  8 29  1  0  0  0  0
  8 30  1  0  0  0  0
  9 31  1  0  0  0  0
  9 32  1  0  0  0  0
 10 33  1  0  0  0  0
 10 34  1  0  0  0  0
 11 12  1  0  0  0  0
 12 13  2  0  0  0  0
 12 14  1  0  0  0  0
 13 16  1  0  0  0  0
 13 35  1  0  0  0  0
 14 17  2  0  0  0  0
 14 36  1  0  0  0  0
 15 16  2  0  0  0  0
 15 17  1  0  0  0  0
 16 37  1  0  0  0  0
 17 38  1  0  0  0  0
 18 19  1  0  0  0  0
 19 20  2  0  0  0  0
 19 21  1  0  0  0  0
 20 22  1  0  0  0  0
 20 40  1  0  0  0  0
 21 23  2  0  0  0  0
 21 41  1  0  0  0  0
 22 24  2  0  0  0  0
 22 42  1  0  0  0  0
 23 24  1  0  0  0  0
 23 43  1  0  0  0  0
M  END
> <PUBCHEM_COMPOUND_CID>
1039688

> <PUBCHEM_CONFORMER_RMSD>
0.8

> <PUBCHEM_MMFF94_PARTIAL_CHARGES>
30
1 -0.11
10 0.3
11 0.54
12 0.09
13 -0.15
14 -0.15
15 0.12
16 -0.15
17 -0.15
18 0.54
19 0.09
2 -0.57
20 -0.15
21 -0.15
22 -0.15
23 -0.15
24 0.11
3 -0.57
35 0.15
36 0.15
37 0.15
38 0.15
39 0.37
4 -0.66
40 0.15
41 0.15
42 0.15
43 0.15
5 -0.55
9 0.3

> <PUBCHEM_EFFECTIVE_ROTOR_COUNT>
6.2

> <PUBCHEM_PHARMACOPHORE_FEATURES>
7
1 1 hydrophobe
1 2 acceptor
1 3 acceptor
1 5 donor
6 12 13 14 15 16 17 rings
6 19 20 21 22 23 24 rings
6 4 6 7 8 9 10 rings

> <PUBCHEM_HEAVY_ATOM_COUNT>
24

> <PUBCHEM_ATOM_DEF_STEREO_COUNT>
0

> <PUBCHEM_ATOM_UDEF_STEREO_COUNT>
0

> <PUBCHEM_BOND_DEF_STEREO_COUNT>
0

> <PUBCHEM_BOND_UDEF_STEREO_COUNT>
0

> <PUBCHEM_ISOTOPIC_ATOM_COUNT>
0

> <PUBCHEM_COMPONENT_COUNT>
1

> <PUBCHEM_CACTVS_TAUTO_COUNT>
3

> <PUBCHEM_CONFORMER_ID>
000FDD4800000001

> <PUBCHEM_MMFF94_ENERGY>
69.7589

> <PUBCHEM_FEATURE_SELFOVERLAP>
-7

> <PUBCHEM_SHAPE_MULTIPOLES>
478.15
21.96
1.65
1.31
15.13
9.36
-3.3
5.26
-4.93
-5.8
-5.98
0.39
23.26
21.24

> <PUBCHEM_SHAPE_SELFOVERLAP>
1011.701

> <PUBCHEM_SHAPE_VOLUME>
272.4

> <PUBCHEM_COORDINATE_TYPE>
2
5
255

$$$$
883022
  -OEChem-06081017553D

 46 48  0     0  0  0  0  0  0999 V2000
   -4.0048   -1.2195    1.0753 S   0  0  0  0  0  0  0  0  0  0  0  0
    3.1524   -2.0258   -1.0786 O   0  0  0  0  0  0  0  0  0  0  0  0
    3.0295   -0.3360    0.5335 N   0  0  0  0  0  0  0  0  0  0  0  0
    3.1310    2.6856    0.4509 C   0  0  0  0  0  0  0  0  0  0  0  0
    3.7519    2.1629   -0.8447 C   0  0  0  0  0  0  0  0  0  0  0  0
    1.9172    1.8687    0.9053 C   0  0  0  0  0  0  0  0  0  0  0  0
    4.7338    0.9984   -0.6949 C   0  0  0  0  0  0  0  0  0  0  0  0
    2.2527    0.4890    1.4657 C   0  0  0  0  0  0  0  0  0  0  0  0
    4.4447   -0.0009    0.4207 C   0  0  0  0  0  0  0  0  0  0  0  0
    2.5054   -1.3320   -0.2959 C   0  0  0  0  0  0  0  0  0  0  0  0
    1.0608   -1.5796   -0.2473 C   0  0  0  0  0  0  0  0  0  0  0  0
    0.2097   -0.8798   -1.0979 C   0  0  0  0  0  0  0  0  0  0  0  0
    0.5495   -2.5144    0.6484 C   0  0  0  0  0  0  0  0  0  0  0  0
   -1.6812   -2.0528   -0.1566 C   0  0  0  0  0  0  0  0  0  0  0  0
   -1.1642   -1.1169   -1.0524 C   0  0  0  0  0  0  0  0  0  0  0  0
   -0.8244   -2.7516    0.6938 C   0  0  0  0  0  0  0  0  0  0  0  0
   -3.1503   -2.3050   -0.1077 C   0  0  0  0  0  0  0  0  0  0  0  0
   -3.6187    0.3963    0.4120 C   0  0  0  0  0  0  0  0  0  0  0  0
   -4.0169    0.7264   -0.8800 C   0  0  0  0  0  0  0  0  0  0  0  0
   -2.9224    1.3148    1.1919 C   0  0  0  0  0  0  0  0  0  0  0  0
   -3.7160    1.9865   -1.3970 C   0  0  0  0  0  0  0  0  0  0  0  0
   -2.6216    2.5750    0.6750 C   0  0  0  0  0  0  0  0  0  0  0  0
   -3.0184    2.9108   -0.6194 C   0  0  0  0  0  0  0  0  0  0  0  0
    3.8801    2.7537    1.2479 H   0  0  0  0  0  0  0  0  0  0  0  0
    2.7818    3.7090    0.2633 H   0  0  0  0  0  0  0  0  0  0  0  0
    2.9535    1.8725   -1.5396 H   0  0  0  0  0  0  0  0  0  0  0  0
    4.2858    2.9859   -1.3369 H   0  0  0  0  0  0  0  0  0  0  0  0
    1.3913    2.4327    1.6854 H   0  0  0  0  0  0  0  0  0  0  0  0
    1.2136    1.7696    0.0702 H   0  0  0  0  0  0  0  0  0  0  0  0
    4.7723    0.4675   -1.6548 H   0  0  0  0  0  0  0  0  0  0  0  0
    5.7435    1.3980   -0.5369 H   0  0  0  0  0  0  0  0  0  0  0  0
    2.8278    0.5858    2.3942 H   0  0  0  0  0  0  0  0  0  0  0  0
    1.3219   -0.0159    1.7376 H   0  0  0  0  0  0  0  0  0  0  0  0
    5.0134   -0.9184    0.2271 H   0  0  0  0  0  0  0  0  0  0  0  0
    4.7988    0.3845    1.3838 H   0  0  0  0  0  0  0  0  0  0  0  0
    0.6041   -0.1556   -1.8058 H   0  0  0  0  0  0  0  0  0  0  0  0
    1.2089   -3.0635    1.3154 H   0  0  0  0  0  0  0  0  0  0  0  0
   -1.8033   -0.5915   -1.7538 H   0  0  0  0  0  0  0  0  0  0  0  0
   -1.2140   -3.4825    1.3975 H   0  0  0  0  0  0  0  0  0  0  0  0
   -3.5966   -2.1975   -1.1030 H   0  0  0  0  0  0  0  0  0  0  0  0
   -3.3434   -3.3423    0.1898 H   0  0  0  0  0  0  0  0  0  0  0  0
   -4.5693    0.0256   -1.5004 H   0  0  0  0  0  0  0  0  0  0  0  0
   -2.6036    1.0693    2.2017 H   0  0  0  0  0  0  0  0  0  0  0  0
   -4.0261    2.2487   -2.4042 H   0  0  0  0  0  0  0  0  0  0  0  0
   -2.0768    3.2941    1.2797 H   0  0  0  0  0  0  0  0  0  0  0  0
   -2.7836    3.8918   -1.0219 H   0  0  0  0  0  0  0  0  0  0  0  0
  1 17  1  0  0  0  0
  1 18  1  0  0  0  0
  2 10  2  0  0  0  0
  3  8  1  0  0  0  0
  3  9  1  0  0  0  0
  3 10  1  0  0  0  0
  4  5  1  0  0  0  0
  4  6  1  0  0  0  0
  4 24  1  0  0  0  0
  4 25  1  0  0  0  0
  5  7  1  0  0  0  0
  5 26  1  0  0  0  0
  5 27  1  0  0  0  0
  6  8  1  0  0  0  0
  6 28  1  0  0  0  0
  6 29  1  0  0  0  0
  7  9  1  0  0  0  0
  7 30  1  0  0  0  0
  7 31  1  0  0  0  0
  8 32  1  0  0  0  0
  8 33  1  0  0  0  0
  9 34  1  0  0  0  0
  9 35  1  0  0  0  0
 10 11  1  0  0  0  0
 11 12  2  0  0  0  0
 11 13  1  0  0  0  0
 12 15  1  0  0  0  0
 12 36  1  0  0  0  0
 13 16  2  0  0  0  0
 13 37  1  0  0  0  0
 14 15  2  0  0  0  0
 14 16  1  0  0  0  0
 14 17  1  0  0  0  0
 15 38  1  0  0  0  0
 16 39  1  0  0  0  0
 17 40  1  0  0  0  0
 17 41  1  0  0  0  0
 18 19  2  0  0  0  0
 18 20  1  0  0  0  0
 19 21  1  0  0  0  0
 19 42  1  0  0  0  0
 20 22  2  0  0  0  0
 20 43  1  0  0  0  0
 21 23  2  0  0  0  0
 21 44  1  0  0  0  0
 22 23  1  0  0  0  0
 22 45  1  0  0  0  0
 23 46  1  0  0  0  0
M  END
> <PUBCHEM_COMPOUND_CID>
883022

> <PUBCHEM_CONFORMER_RMSD>
0.8

> <PUBCHEM_MMFF94_PARTIAL_CHARGES>
28
1 -0.33
10 0.54
11 0.09
12 -0.15
13 -0.15
14 -0.14
15 -0.15
16 -0.15
17 0.37
18 0.1
19 -0.15
2 -0.57
20 -0.15
21 -0.15
22 -0.15
23 -0.15
3 -0.66
36 0.15
37 0.15
38 0.15
39 0.15
42 0.15
43 0.15
44 0.15
45 0.15
46 0.15
8 0.3
9 0.3

> <PUBCHEM_EFFECTIVE_ROTOR_COUNT>
6.4

> <PUBCHEM_PHARMACOPHORE_FEATURES>
4
1 2 acceptor
6 11 12 13 14 15 16 rings
6 18 19 20 21 22 23 rings
7 3 4 5 6 7 8 9 rings

> <PUBCHEM_HEAVY_ATOM_COUNT>
23

> <PUBCHEM_ATOM_DEF_STEREO_COUNT>
0

> <PUBCHEM_ATOM_UDEF_STEREO_COUNT>
0

> <PUBCHEM_BOND_DEF_STEREO_COUNT>
0

> <PUBCHEM_BOND_UDEF_STEREO_COUNT>
0

> <PUBCHEM_ISOTOPIC_ATOM_COUNT>
0

> <PUBCHEM_COMPONENT_COUNT>
1

> <PUBCHEM_CACTVS_TAUTO_COUNT>
1

> <PUBCHEM_CONFORMER_ID>
000D794E00000001

> <PUBCHEM_MMFF94_ENERGY>
61.0029

> <PUBCHEM_FEATURE_SELFOVERLAP>
-4

> <PUBCHEM_SHAPE_MULTIPOLES>
466.33
9.34
3.81
1.3
1.7
5.22
-0.54
0.83
-1.92
-2.46
-0.93
2.97
5.77
9.93

> <PUBCHEM_SHAPE_SELFOVERLAP>
971.698

> <PUBCHEM_SHAPE_VOLUME>
263.4

> <PUBCHEM_COORDINATE_TYPE>
2
5
255

$$$$
4612996
  -OEChem-06081017553D

 49 52  0     1  0  0  0  0  0999 V2000
    2.4852   -0.5658    2.0734 O   0  0  0  0  0  0  0  0  0  0  0  0
    2.5939    1.6611   -2.0087 O   0  0  0  0  0  0  0  0  0  0  0  0
   -4.0148    2.2997    0.1413 O   0  0  0  0  0  0  0  0  0  0  0  0
    2.0872    0.6075    0.0544 N   0  0  0  0  0  0  0  0  0  0  0  0
   -4.3460   -0.0065    0.3370 N   0  0  0  0  0  0  0  0  0  0  0  0
    4.2962    0.3284    0.7456 C   0  0  2  0  0  0  0  0  0  0  0  0
    4.2721    0.4639   -0.7739 C   0  0  1  0  0  0  0  0  0  0  0  0
    5.2920   -0.6833    1.3003 C   0  0  0  0  0  0  0  0  0  0  0  0
    4.4331   -0.8553   -1.5352 C   0  0  0  0  0  0  0  0  0  0  0  0
    5.3340   -1.9866    0.5111 C   0  0  0  0  0  0  0  0  0  0  0  0
    5.5508   -1.7211   -0.9725 C   0  0  0  0  0  0  0  0  0  0  0  0
    2.8472    0.0437    1.0772 C   0  0  0  0  0  0  0  0  0  0  0  0
    2.8829    1.0068   -1.0164 C   0  0  0  0  0  0  0  0  0  0  0  0
    0.6636    0.7456    0.0943 C   0  0  0  0  0  0  0  0  0  0  0  0
   -5.7187   -2.3811   -0.5640 C   0  0  0  0  0  0  0  0  0  0  0  0
   -6.3654   -0.9991   -0.6609 C   0  0  0  0  0  0  0  0  0  0  0  0
   -4.1935   -2.2787   -0.5913 C   0  0  0  0  0  0  0  0  0  0  0  0
   -5.8126   -0.0574    0.4057 C   0  0  0  0  0  0  0  0  0  0  0  0
   -3.6832   -1.3045    0.4678 C   0  0  0  0  0  0  0  0  0  0  0  0
   -0.0770    0.7120   -1.0895 C   0  0  0  0  0  0  0  0  0  0  0  0
    0.0092    0.9131    1.3167 C   0  0  0  0  0  0  0  0  0  0  0  0
   -2.1158    1.0129    0.1712 C   0  0  0  0  0  0  0  0  0  0  0  0
   -3.5767    1.1524    0.2122 C   0  0  0  0  0  0  0  0  0  0  0  0
   -1.4649    0.8457   -1.0509 C   0  0  0  0  0  0  0  0  0  0  0  0
   -1.3788    1.0466    1.3551 C   0  0  0  0  0  0  0  0  0  0  0  0
    4.5099    1.3076    1.1983 H   0  0  0  0  0  0  0  0  0  0  0  0
    5.0251    1.1904   -1.0987 H   0  0  0  0  0  0  0  0  0  0  0  0
    5.0773   -0.9029    2.3526 H   0  0  0  0  0  0  0  0  0  0  0  0
    6.2927   -0.2330    1.2740 H   0  0  0  0  0  0  0  0  0  0  0  0
    4.6291   -0.6420   -2.5934 H   0  0  0  0  0  0  0  0  0  0  0  0
    3.4968   -1.4294   -1.5172 H   0  0  0  0  0  0  0  0  0  0  0  0
    4.3990   -2.5409    0.6570 H   0  0  0  0  0  0  0  0  0  0  0  0
    6.1429   -2.6194    0.8936 H   0  0  0  0  0  0  0  0  0  0  0  0
    6.5173   -1.2262   -1.1262 H   0  0  0  0  0  0  0  0  0  0  0  0
    5.5872   -2.6723   -1.5155 H   0  0  0  0  0  0  0  0  0  0  0  0
   -6.0351   -2.8674    0.3669 H   0  0  0  0  0  0  0  0  0  0  0  0
   -6.0638   -3.0120   -1.3904 H   0  0  0  0  0  0  0  0  0  0  0  0
   -6.1671   -0.5798   -1.6552 H   0  0  0  0  0  0  0  0  0  0  0  0
   -7.4521   -1.0864   -0.5553 H   0  0  0  0  0  0  0  0  0  0  0  0
   -3.7532   -3.2690   -0.4307 H   0  0  0  0  0  0  0  0  0  0  0  0
   -3.8738   -1.9374   -1.5838 H   0  0  0  0  0  0  0  0  0  0  0  0
   -6.2168    0.9507    0.2698 H   0  0  0  0  0  0  0  0  0  0  0  0
   -6.0867   -0.3987    1.4103 H   0  0  0  0  0  0  0  0  0  0  0  0
   -3.9247   -1.6837    1.4688 H   0  0  0  0  0  0  0  0  0  0  0  0
   -2.5958   -1.2725    0.4074 H   0  0  0  0  0  0  0  0  0  0  0  0
    0.3919    0.5525   -2.0557 H   0  0  0  0  0  0  0  0  0  0  0  0
    0.5530    0.9733    2.2547 H   0  0  0  0  0  0  0  0  0  0  0  0
   -2.0309    0.8103   -1.9783 H   0  0  0  0  0  0  0  0  0  0  0  0
   -1.8760    1.1823    2.3121 H   0  0  0  0  0  0  0  0  0  0  0  0
  1 12  2  0  0  0  0
  2 13  2  0  0  0  0
  3 23  2  0  0  0  0
  4 12  1  0  0  0  0
  4 13  1  0  0  0  0
  4 14  1  0  0  0  0
  5 18  1  0  0  0  0
  5 19  1  0  0  0  0
  5 23  1  0  0  0  0
  6  7  1  0  0  0  0
  6  8  1  0  0  0  0
  6 12  1  0  0  0  0
  6 26  1  0  0  0  0
  7  9  1  0  0  0  0
  7 13  1  0  0  0  0
  7 27  1  0  0  0  0
  8 10  1  0  0  0  0
  8 28  1  0  0  0  0
  8 29  1  0  0  0  0
  9 11  1  0  0  0  0
  9 30  1  0  0  0  0
  9 31  1  0  0  0  0
 10 11  1  0  0  0  0
 10 32  1  0  0  0  0
 10 33  1  0  0  0  0
 11 34  1  0  0  0  0
 11 35  1  0  0  0  0
 14 20  2  0  0  0  0
 14 21  1  0  0  0  0
 15 16  1  0  0  0  0
 15 17  1  0  0  0  0
 15 36  1  0  0  0  0
 15 37  1  0  0  0  0
 16 18  1  0  0  0  0
 16 38  1  0  0  0  0
 16 39  1  0  0  0  0
 17 19  1  0  0  0  0
 17 40  1  0  0  0  0
 17 41  1  0  0  0  0
 18 42  1  0  0  0  0
 18 43  1  0  0  0  0
 19 44  1  0  0  0  0
 19 45  1  0  0  0  0
 20 24  1  0  0  0  0
 20 46  1  0  0  0  0
 21 25  2  0  0  0  0
 21 47  1  0  0  0  0
 22 23  1  0  0  0  0
 22 24  2  0  0  0  0
 22 25  1  0  0  0  0
 24 48  1  0  0  0  0
 25 49  1  0  0  0  0
M  END
> <PUBCHEM_COMPOUND_CID>
4612996

> <PUBCHEM_CONFORMER_RMSD>
0.8

> <PUBCHEM_MMFF94_PARTIAL_CHARGES>
22
1 -0.57
12 0.57
13 0.57
14 0.12
18 0.3
19 0.3
2 -0.57
20 -0.15
21 -0.15
22 0.09
23 0.54
24 -0.15
25 -0.15
3 -0.57
4 -0.24
46 0.15
47 0.15
48 0.15
49 0.15
5 -0.66
6 0.06
7 0.06

> <PUBCHEM_EFFECTIVE_ROTOR_COUNT>
5.2

> <PUBCHEM_PHARMACOPHORE_FEATURES>
7
1 1 acceptor
1 2 acceptor
1 3 acceptor
5 4 6 7 12 13 rings
6 14 20 21 22 24 25 rings
6 5 15 16 17 18 19 rings
6 6 7 8 9 10 11 rings

> <PUBCHEM_HEAVY_ATOM_COUNT>
25

> <PUBCHEM_ATOM_DEF_STEREO_COUNT>
0

> <PUBCHEM_ATOM_UDEF_STEREO_COUNT>
2

> <PUBCHEM_BOND_DEF_STEREO_COUNT>
0

> <PUBCHEM_BOND_UDEF_STEREO_COUNT>
0

> <PUBCHEM_ISOTOPIC_ATOM_COUNT>
0

> <PUBCHEM_COMPONENT_COUNT>
1

> <PUBCHEM_CACTVS_TAUTO_COUNT>
3

> <PUBCHEM_CONFORMER_ID>
0046638400000001

> <PUBCHEM_MMFF94_ENERGY>
65.1119

> <PUBCHEM_FEATURE_SELFOVERLAP>
-7.035

> <PUBCHEM_SHAPE_MULTIPOLES>
486.92
15.74
2.09
1.53
6.4
10.35
-0.83
1.19
-9.52
-6.91
-0.46
-2.77
1.28
22.17

> <PUBCHEM_SHAPE_SELFOVERLAP>
1052.016

> <PUBCHEM_SHAPE_VOLUME>
264.1

> <PUBCHEM_COORDINATE_TYPE>
2
5
255

$$$$
4986508
  -OEChem-06081017553D

 43 45  0     1  0  0  0  0  0999 V2000
    7.2052    2.0842    0.4546 Cl  0  0  0  0  0  0  0  0  0  0  0  0
   -2.3411   -2.1172    1.2318 O   0  0  0  0  0  0  0  0  0  0  0  0
   -2.7947   -0.0783    0.1994 N   0  0  0  0  0  0  0  0  0  0  0  0
    0.3181   -0.4576    1.0682 N   0  0  0  0  0  0  0  0  0  0  0  0
    1.5178   -0.5530    0.4369 N   0  0  0  0  0  0  0  0  0  0  0  0
    2.4777   -1.4188   -1.5923 N   0  0  0  0  0  0  0  0  0  0  0  0
   -2.3457    1.1176   -0.5602 C   0  0  1  0  0  0  0  0  0  0  0  0
   -4.2206   -0.1574    0.5882 C   0  0  1  0  0  0  0  0  0  0  0  0
   -3.4807    1.7118   -1.4013 C   0  0  0  0  0  0  0  0  0  0  0  0
   -4.8876    1.2180    0.6717 C   0  0  0  0  0  0  0  0  0  0  0  0
   -4.7303    2.0553   -0.5946 C   0  0  0  0  0  0  0  0  0  0  0  0
   -1.7123    2.1661    0.3613 C   0  0  0  0  0  0  0  0  0  0  0  0
   -4.9903   -1.1061   -0.3382 C   0  0  0  0  0  0  0  0  0  0  0  0
   -1.9468   -1.1353    0.6026 C   0  0  0  0  0  0  0  0  0  0  0  0
   -0.5372   -1.0513    0.2405 C   0  0  0  0  0  0  0  0  0  0  0  0
    0.0677   -1.5371   -0.9230 C   0  0  0  0  0  0  0  0  0  0  0  0
    1.3977   -1.2104   -0.7875 C   0  0  0  0  0  0  0  0  0  0  0  0
    2.7512   -0.0847    0.8813 C   0  0  0  0  0  0  0  0  0  0  0  0
    3.8524   -0.2569    0.1382 C   0  0  0  0  0  0  0  0  0  0  0  0
    3.6131   -0.9700   -1.1491 C   0  0  0  0  0  0  0  0  0  0  0  0
    5.2289    0.1871    0.4824 C   0  0  0  0  0  0  0  0  0  0  0  0
    5.5573    1.5941   -0.0111 C   0  0  0  0  0  0  0  0  0  0  0  0
   -1.5661    0.7941   -1.2584 H   0  0  0  0  0  0  0  0  0  0  0  0
   -4.2586   -0.5992    1.5927 H   0  0  0  0  0  0  0  0  0  0  0  0
   -3.7546    0.9841   -2.1758 H   0  0  0  0  0  0  0  0  0  0  0  0
   -3.1358    2.6014   -1.9421 H   0  0  0  0  0  0  0  0  0  0  0  0
   -4.4470    1.7671    1.5130 H   0  0  0  0  0  0  0  0  0  0  0  0
   -5.9521    1.1175    0.9161 H   0  0  0  0  0  0  0  0  0  0  0  0
   -4.7130    3.1161   -0.3161 H   0  0  0  0  0  0  0  0  0  0  0  0
   -5.6105    1.9274   -1.2366 H   0  0  0  0  0  0  0  0  0  0  0  0
   -1.3491    3.0168   -0.2257 H   0  0  0  0  0  0  0  0  0  0  0  0
   -0.8634    1.7715    0.9206 H   0  0  0  0  0  0  0  0  0  0  0  0
   -2.4204    2.5533    1.0986 H   0  0  0  0  0  0  0  0  0  0  0  0
   -6.0355   -1.1905   -0.0221 H   0  0  0  0  0  0  0  0  0  0  0  0
   -4.5569   -2.1115   -0.3215 H   0  0  0  0  0  0  0  0  0  0  0  0
   -4.9788   -0.7682   -1.3782 H   0  0  0  0  0  0  0  0  0  0  0  0
   -0.3880   -2.0550   -1.7548 H   0  0  0  0  0  0  0  0  0  0  0  0
    2.7667    0.4169    1.8421 H   0  0  0  0  0  0  0  0  0  0  0  0
    5.9577   -0.5288    0.0813 H   0  0  0  0  0  0  0  0  0  0  0  0
    5.3531    0.1525    1.5732 H   0  0  0  0  0  0  0  0  0  0  0  0
    4.5072   -1.1199   -1.7770 H   0  0  0  0  0  0  0  0  0  0  0  0
    4.8664    2.3311    0.4109 H   0  0  0  0  0  0  0  0  0  0  0  0
    5.4943    1.6520   -1.1024 H   0  0  0  0  0  0  0  0  0  0  0  0
  1 22  1  0  0  0  0
  2 14  2  0  0  0  0
  3  7  1  0  0  0  0
  3  8  1  0  0  0  0
  3 14  1  0  0  0  0
  4  5  1  0  0  0  0
  4 15  2  0  0  0  0
  5 17  1  0  0  0  0
  5 18  1  0  0  0  0
  6 17  1  0  0  0  0
  6 20  2  0  0  0  0
  7  9  1  0  0  0  0
  7 12  1  0  0  0  0
  7 23  1  0  0  0  0
  8 10  1  0  0  0  0
  8 13  1  0  0  0  0
  8 24  1  0  0  0  0
  9 11  1  0  0  0  0
  9 25  1  0  0  0  0
  9 26  1  0  0  0  0
 10 11  1  0  0  0  0
 10 27  1  0  0  0  0
 10 28  1  0  0  0  0
 11 29  1  0  0  0  0
 11 30  1  0  0  0  0
 12 31  1  0  0  0  0
 12 32  1  0  0  0  0
 12 33  1  0  0  0  0
 13 34  1  0  0  0  0
 13 35  1  0  0  0  0
 13 36  1  0  0  0  0
 14 15  1  0  0  0  0
 15 16  1  0  0  0  0
 16 17  2  0  0  0  0
 16 37  1  0  0  0  0
 18 19  2  0  0  0  0
 18 38  1  0  0  0  0
 19 20  1  0  0  0  0
 19 21  1  0  0  0  0
 20 41  1  0  0  0  0
 21 22  1  0  0  0  0
 21 39  1  0  0  0  0
 21 40  1  0  0  0  0
 22 42  1  0  0  0  0
 22 43  1  0  0  0  0
M  END
> <PUBCHEM_COMPOUND_CID>
4986508

> <PUBCHEM_CONFORMER_RMSD>
0.8

> <PUBCHEM_MMFF94_PARTIAL_CHARGES>
20
1 -0.29
14 0.72
15 0.2
16 -0.15
17 -0.03
18 -0.18
19 -0.12
2 -0.57
20 0.38
21 0.14
22 0.29
3 -0.66
37 0.15
38 0.15
4 -0.71
41 0.06
5 0.6
6 -0.58
7 0.3
8 0.3

> <PUBCHEM_EFFECTIVE_ROTOR_COUNT>
5.2

> <PUBCHEM_PHARMACOPHORE_FEATURES>
6
1 2 acceptor
1 4 acceptor
1 6 acceptor
5 4 5 15 16 17 rings
6 3 7 8 9 10 11 rings
6 5 6 17 18 19 20 rings

> <PUBCHEM_HEAVY_ATOM_COUNT>
22

> <PUBCHEM_ATOM_DEF_STEREO_COUNT>
0

> <PUBCHEM_ATOM_UDEF_STEREO_COUNT>
2

> <PUBCHEM_BOND_DEF_STEREO_COUNT>
0

> <PUBCHEM_BOND_UDEF_STEREO_COUNT>
0

> <PUBCHEM_ISOTOPIC_ATOM_COUNT>
0

> <PUBCHEM_COMPONENT_COUNT>
1

> <PUBCHEM_CACTVS_TAUTO_COUNT>
1

> <PUBCHEM_CONFORMER_ID>
004C168C00000001

> <PUBCHEM_MMFF94_ENERGY>
48.4692

> <PUBCHEM_FEATURE_SELFOVERLAP>
-6.025

> <PUBCHEM_SHAPE_MULTIPOLES>
428.83
14.14
2.3
1.18
14.56
9.7
0.36
-1.07
-9.32
-6.59
1.98
5.56
12.87
21.14

> <PUBCHEM_SHAPE_SELFOVERLAP>
893.634

> <PUBCHEM_SHAPE_VOLUME>
244.4

> <PUBCHEM_COORDINATE_TYPE>
2
5
255

$$$$
15945512
  -OEChem-06081017553D

 64 67  0     0  0  0  0  0  0999 V2000
   -3.3809    3.0850   -0.5405 O   0  0  0  0  0  0  0  0  0  0  0  0
    6.2189    2.6129   -0.9532 O   0  0  0  0  0  0  0  0  0  0  0  0
    7.3558   -0.2193   -1.0310 O   0  0  0  0  0  0  0  0  0  0  0  0
    3.2992    1.5902   -0.0659 N   0  0  0  0  0  0  0  0  0  0  0  0
    4.5550   -1.5449   -0.1525 N   0  0  0  0  0  0  0  0  0  0  0  0
   -4.2596    1.3395    0.7244 N   0  0  0  0  0  0  0  0  0  0  0  0
    1.0226    1.7901    0.7494 C   0  0  0  0  0  0  0  0  0  0  0  0
    0.0883    1.4940    1.9303 C   0  0  0  0  0  0  0  0  0  0  0  0
    0.4457    1.2298   -0.5576 C   0  0  0  0  0  0  0  0  0  0  0  0
   -1.8955    1.4523    0.3657 C   0  0  0  0  0  0  0  0  0  0  0  0
   -1.3271    2.0064    1.6723 C   0  0  0  0  0  0  0  0  0  0  0  0
   -0.9692    1.7437   -0.8149 C   0  0  0  0  0  0  0  0  0  0  0  0
    2.4172    1.2234    1.0098 C   0  0  0  0  0  0  0  0  0  0  0  0
   -3.2432    2.0568    0.1172 C   0  0  0  0  0  0  0  0  0  0  0  0
    4.4267    0.9625   -0.3239 C   0  0  0  0  0  0  0  0  0  0  0  0
    4.9323   -0.2971   -0.3590 C   0  0  0  0  0  0  0  0  0  0  0  0
    5.2844   -2.4324    0.7535 C   0  0  0  0  0  0  0  0  0  0  0  0
    3.4776   -2.1637   -0.9255 C   0  0  0  0  0  0  0  0  0  0  0  0
    4.3111   -3.1100    1.7162 C   0  0  0  0  0  0  0  0  0  0  0  0
    2.4811   -2.8391    0.0149 C   0  0  0  0  0  0  0  0  0  0  0  0
    3.1811   -3.8096    0.9638 C   0  0  0  0  0  0  0  0  0  0  0  0
    5.7036    1.5503   -0.7232 C   0  0  0  0  0  0  0  0  0  0  0  0
    6.2536    0.1804   -0.7609 C   0  0  0  0  0  0  0  0  0  0  0  0
   -5.6502    1.7262    0.6557 C   0  0  0  0  0  0  0  0  0  0  0  0
   -6.3703    1.1132   -0.5430 C   0  0  0  0  0  0  0  0  0  0  0  0
   -6.3822   -0.3954   -0.5140 C   0  0  0  0  0  0  0  0  0  0  0  0
   -5.3476   -1.1128   -1.1146 C   0  0  0  0  0  0  0  0  0  0  0  0
   -7.4277   -1.0728    0.1137 C   0  0  0  0  0  0  0  0  0  0  0  0
   -5.3585   -2.5074   -1.0878 C   0  0  0  0  0  0  0  0  0  0  0  0
   -7.4384   -2.4674    0.1407 C   0  0  0  0  0  0  0  0  0  0  0  0
   -6.4038   -3.1846   -0.4601 C   0  0  0  0  0  0  0  0  0  0  0  0
    1.1011    2.8817    0.6451 H   0  0  0  0  0  0  0  0  0  0  0  0
    0.0519    0.4128    2.1160 H   0  0  0  0  0  0  0  0  0  0  0  0
    0.4797    1.9596    2.8426 H   0  0  0  0  0  0  0  0  0  0  0  0
    1.0736    1.5069   -1.4122 H   0  0  0  0  0  0  0  0  0  0  0  0
    0.4290    0.1328   -0.5192 H   0  0  0  0  0  0  0  0  0  0  0  0
   -1.9991    0.3623    0.4543 H   0  0  0  0  0  0  0  0  0  0  0  0
   -1.9718    1.7279    2.5149 H   0  0  0  0  0  0  0  0  0  0  0  0
   -1.3163    3.1041    1.6436 H   0  0  0  0  0  0  0  0  0  0  0  0
   -0.9185    2.8228   -1.0109 H   0  0  0  0  0  0  0  0  0  0  0  0
   -1.3669    1.2816   -1.7269 H   0  0  0  0  0  0  0  0  0  0  0  0
    2.8129    1.6225    1.9516 H   0  0  0  0  0  0  0  0  0  0  0  0
    2.3604    0.1351    1.1211 H   0  0  0  0  0  0  0  0  0  0  0  0
    3.2113    2.5695   -0.3336 H   0  0  0  0  0  0  0  0  0  0  0  0
    5.8235   -3.1862    0.1667 H   0  0  0  0  0  0  0  0  0  0  0  0
    6.0330   -1.8808    1.3358 H   0  0  0  0  0  0  0  0  0  0  0  0
    2.9476   -1.4231   -1.5373 H   0  0  0  0  0  0  0  0  0  0  0  0
    3.9058   -2.9014   -1.6151 H   0  0  0  0  0  0  0  0  0  0  0  0
    4.8477   -3.8339    2.3392 H   0  0  0  0  0  0  0  0  0  0  0  0
    3.8822   -2.3578    2.3903 H   0  0  0  0  0  0  0  0  0  0  0  0
    1.7253   -3.3742   -0.5707 H   0  0  0  0  0  0  0  0  0  0  0  0
    1.9514   -2.0808    0.6028 H   0  0  0  0  0  0  0  0  0  0  0  0
    2.4575   -4.2204    1.6765 H   0  0  0  0  0  0  0  0  0  0  0  0
    3.5872   -4.6533    0.3927 H   0  0  0  0  0  0  0  0  0  0  0  0
   -4.0322    0.5031    1.2544 H   0  0  0  0  0  0  0  0  0  0  0  0
   -6.1177    1.4081    1.5941 H   0  0  0  0  0  0  0  0  0  0  0  0
   -5.7118    2.8186    0.6014 H   0  0  0  0  0  0  0  0  0  0  0  0
   -7.4024    1.4841   -0.5754 H   0  0  0  0  0  0  0  0  0  0  0  0
   -5.9023    1.4519   -1.4766 H   0  0  0  0  0  0  0  0  0  0  0  0
   -4.5278   -0.5982   -1.6088 H   0  0  0  0  0  0  0  0  0  0  0  0
   -8.2382   -0.5251    0.5870 H   0  0  0  0  0  0  0  0  0  0  0  0
   -4.5531   -3.0657   -1.5557 H   0  0  0  0  0  0  0  0  0  0  0  0
   -8.2520   -2.9950    0.6300 H   0  0  0  0  0  0  0  0  0  0  0  0
   -6.4122   -4.2704   -0.4391 H   0  0  0  0  0  0  0  0  0  0  0  0
  1 14  2  0  0  0  0
  2 22  2  0  0  0  0
  3 23  2  0  0  0  0
  4 13  1  0  0  0  0
  4 15  1  0  0  0  0
  4 44  1  0  0  0  0
  5 16  1  0  0  0  0
  5 17  1  0  0  0  0
  5 18  1  0  0  0  0
  6 14  1  0  0  0  0
  6 24  1  0  0  0  0
  6 55  1  0  0  0  0
  7  8  1  0  0  0  0
  7  9  1  0  0  0  0
  7 13  1  0  0  0  0
  7 32  1  0  0  0  0
  8 11  1  0  0  0  0
  8 33  1  0  0  0  0
  8 34  1  0  0  0  0
  9 12  1  0  0  0  0
  9 35  1  0  0  0  0
  9 36  1  0  0  0  0
 10 11  1  0  0  0  0
 10 12  1  0  0  0  0
 10 14  1  0  0  0  0
 10 37  1  0  0  0  0
 11 38  1  0  0  0  0
 11 39  1  0  0  0  0
 12 40  1  0  0  0  0
 12 41  1  0  0  0  0
 13 42  1  0  0  0  0
 13 43  1  0  0  0  0
 15 16  2  0  0  0  0
 15 22  1  0  0  0  0
 16 23  1  0  0  0  0
 17 19  1  0  0  0  0
 17 45  1  0  0  0  0
 17 46  1  0  0  0  0
 18 20  1  0  0  0  0
 18 47  1  0  0  0  0
 18 48  1  0  0  0  0
 19 21  1  0  0  0  0
 19 49  1  0  0  0  0
 19 50  1  0  0  0  0
 20 21  1  0  0  0  0
 20 51  1  0  0  0  0
 20 52  1  0  0  0  0
 21 53  1  0  0  0  0
 21 54  1  0  0  0  0
 22 23  1  0  0  0  0
 24 25  1  0  0  0  0
 24 56  1  0  0  0  0
 24 57  1  0  0  0  0
 25 26  1  0  0  0  0
 25 58  1  0  0  0  0
 25 59  1  0  0  0  0
 26 27  2  0  0  0  0
 26 28  1  0  0  0  0
 27 29  1  0  0  0  0
 27 60  1  0  0  0  0
 28 30  2  0  0  0  0
 28 61  1  0  0  0  0
 29 31  2  0  0  0  0
 29 62  1  0  0  0  0
 30 31  1  0  0  0  0
 30 63  1  0  0  0  0
 31 64  1  0  0  0  0
M  END
> <PUBCHEM_COMPOUND_CID>
15945512

> <PUBCHEM_CONFORMER_RMSD>
1.4

> <PUBCHEM_MMFF94_PARTIAL_CHARGES>
30
1 -0.57
10 0.06
13 0.37
14 0.57
15 0.03
16 0.03
17 0.37
18 0.37
2 -0.57
22 0.64
23 0.64
24 0.3
25 0.14
26 -0.14
27 -0.15
28 -0.15
29 -0.15
3 -0.57
30 -0.15
31 -0.15
4 -0.87
44 0.4
5 -0.84
55 0.37
6 -0.73
60 0.15
61 0.15
62 0.15
63 0.15
64 0.15

> <PUBCHEM_EFFECTIVE_ROTOR_COUNT>
11.4

> <PUBCHEM_PHARMACOPHORE_FEATURES>
11
1 1 acceptor
1 2 acceptor
1 3 acceptor
1 4 cation
1 4 donor
1 5 cation
1 6 donor
4 15 16 22 23 rings
6 26 27 28 29 30 31 rings
6 5 17 18 19 20 21 rings
6 7 8 9 10 11 12 rings

> <PUBCHEM_HEAVY_ATOM_COUNT>
31

> <PUBCHEM_ATOM_DEF_STEREO_COUNT>
0

> <PUBCHEM_ATOM_UDEF_STEREO_COUNT>
0

> <PUBCHEM_BOND_DEF_STEREO_COUNT>
0

> <PUBCHEM_BOND_UDEF_STEREO_COUNT>
0

> <PUBCHEM_ISOTOPIC_ATOM_COUNT>
0

> <PUBCHEM_COMPONENT_COUNT>
1

> <PUBCHEM_CACTVS_TAUTO_COUNT>
6

> <PUBCHEM_CONFORMER_ID>
00F34F2800000001

> <PUBCHEM_MMFF94_ENERGY>
67.9503

> <PUBCHEM_FEATURE_SELFOVERLAP>
-11

> <PUBCHEM_SHAPE_MULTIPOLES>
605.41
22.63
4.48
1.33
14.74
13.63
-4.43
7.68
-11.14
-8.39
-12.3
-10.89
12.15
22.37

> <PUBCHEM_SHAPE_SELFOVERLAP>
1277.029

> <PUBCHEM_SHAPE_VOLUME>
335.5

> <PUBCHEM_COORDINATE_TYPE>
2
5
255

$$$$
2905309
  -OEChem-06081017553D

 53 56  0     1  0  0  0  0  0999 V2000
   -2.5513    1.1530   -2.4343 O   0  0  0  0  0  0  0  0  0  0  0  0
   -2.5940    0.3995    2.1546 O   0  0  0  0  0  0  0  0  0  0  0  0
    4.0510    2.2728   -0.4394 O   0  0  0  0  0  0  0  0  0  0  0  0
   -2.1110    0.8261   -0.1260 N   0  0  0  0  0  0  0  0  0  0  0  0
    4.3028    0.1537    0.5282 N   0  0  0  0  0  0  0  0  0  0  0  0
   -4.2820    0.4596   -0.9147 C   0  0  2  0  0  0  0  0  0  0  0  0
   -4.3396    0.8804    0.5478 C   0  0  1  0  0  0  0  0  0  0  0  0
   -4.4413   -1.0499   -1.1597 C   0  0  0  0  0  0  0  0  0  0  0  0
   -5.4127    0.1927    1.3826 C   0  0  0  0  0  0  0  0  0  0  0  0
   -2.8752    0.8683   -1.2898 C   0  0  0  0  0  0  0  0  0  0  0  0
   -2.9116    0.6598    1.0033 C   0  0  0  0  0  0  0  0  0  0  0  0
   -5.2992   -1.7802   -0.1640 C   0  0  0  0  0  0  0  0  0  0  0  0
   -5.7294   -1.2097    0.9710 C   0  0  0  0  0  0  0  0  0  0  0  0
   -0.6843    0.9262   -0.0938 C   0  0  0  0  0  0  0  0  0  0  0  0
   -5.6423   -3.2002   -0.5104 C   0  0  0  0  0  0  0  0  0  0  0  0
    5.1461   -2.6010   -0.4217 C   0  0  0  0  0  0  0  0  0  0  0  0
    6.4822   -1.8874   -0.6236 C   0  0  0  0  0  0  0  0  0  0  0  0
    4.5347   -2.3471    0.9549 C   0  0  0  0  0  0  0  0  0  0  0  0
    6.4021   -0.3633   -0.6714 C   0  0  0  0  0  0  0  0  0  0  0  0
    3.6819   -1.0807    1.0256 C   0  0  0  0  0  0  0  0  0  0  0  0
    5.7614    0.2652    0.5627 C   0  0  0  0  0  0  0  0  0  0  0  0
   -0.0453    1.4742    1.0208 C   0  0  0  0  0  0  0  0  0  0  0  0
    0.0749    0.4790   -1.1775 C   0  0  0  0  0  0  0  0  0  0  0  0
    3.5689    1.2299    0.0016 C   0  0  0  0  0  0  0  0  0  0  0  0
    2.1016    1.1262   -0.0319 C   0  0  0  0  0  0  0  0  0  0  0  0
    1.3458    1.5740    1.0517 C   0  0  0  0  0  0  0  0  0  0  0  0
    1.4659    0.5791   -1.1466 C   0  0  0  0  0  0  0  0  0  0  0  0
   -5.0110    1.0287   -1.5023 H   0  0  0  0  0  0  0  0  0  0  0  0
   -4.4947    1.9674    0.6161 H   0  0  0  0  0  0  0  0  0  0  0  0
   -3.4618   -1.5465   -1.1884 H   0  0  0  0  0  0  0  0  0  0  0  0
   -4.8680   -1.1799   -2.1631 H   0  0  0  0  0  0  0  0  0  0  0  0
   -6.3431    0.7697    1.3066 H   0  0  0  0  0  0  0  0  0  0  0  0
   -5.1321    0.1943    2.4422 H   0  0  0  0  0  0  0  0  0  0  0  0
   -6.3578   -1.7779    1.6525 H   0  0  0  0  0  0  0  0  0  0  0  0
   -4.7293   -3.7934   -0.6254 H   0  0  0  0  0  0  0  0  0  0  0  0
   -6.2020   -3.2371   -1.4507 H   0  0  0  0  0  0  0  0  0  0  0  0
   -6.2550   -3.6784    0.2610 H   0  0  0  0  0  0  0  0  0  0  0  0
    4.4415   -2.3331   -1.2178 H   0  0  0  0  0  0  0  0  0  0  0  0
    5.3318   -3.6783   -0.5171 H   0  0  0  0  0  0  0  0  0  0  0  0
    7.1776   -2.1875    0.1704 H   0  0  0  0  0  0  0  0  0  0  0  0
    6.9244   -2.2369   -1.5648 H   0  0  0  0  0  0  0  0  0  0  0  0
    3.8867   -3.1946    1.2126 H   0  0  0  0  0  0  0  0  0  0  0  0
    5.3183   -2.3260    1.7216 H   0  0  0  0  0  0  0  0  0  0  0  0
    7.4250    0.0213   -0.7668 H   0  0  0  0  0  0  0  0  0  0  0  0
    5.8641   -0.0540   -1.5760 H   0  0  0  0  0  0  0  0  0  0  0  0
    2.7504   -1.2673    0.4838 H   0  0  0  0  0  0  0  0  0  0  0  0
    3.4051   -0.8920    2.0697 H   0  0  0  0  0  0  0  0  0  0  0  0
    6.1414   -0.1648    1.4957 H   0  0  0  0  0  0  0  0  0  0  0  0
    6.0289    1.3283    0.5816 H   0  0  0  0  0  0  0  0  0  0  0  0
   -0.6030    1.8588    1.8694 H   0  0  0  0  0  0  0  0  0  0  0  0
   -0.3836    0.0208   -2.0487 H   0  0  0  0  0  0  0  0  0  0  0  0
    1.8311    2.0071    1.9226 H   0  0  0  0  0  0  0  0  0  0  0  0
    2.0462    0.2208   -1.9930 H   0  0  0  0  0  0  0  0  0  0  0  0
  1 10  2  0  0  0  0
  2 11  2  0  0  0  0
  3 24  2  0  0  0  0
  4 10  1  0  0  0  0
  4 11  1  0  0  0  0
  4 14  1  0  0  0  0
  5 20  1  0  0  0  0
  5 21  1  0  0  0  0
  5 24  1  0  0  0  0
  6  7  1  0  0  0  0
  6  8  1  0  0  0  0
  6 10  1  0  0  0  0
  6 28  1  0  0  0  0
  7  9  1  0  0  0  0
  7 11  1  0  0  0  0
  7 29  1  0  0  0  0
  8 12  1  0  0  0  0
  8 30  1  0  0  0  0
  8 31  1  0  0  0  0
  9 13  1  0  0  0  0
  9 32  1  0  0  0  0
  9 33  1  0  0  0  0
 12 13  2  0  0  0  0
 12 15  1  0  0  0  0
 13 34  1  0  0  0  0
 14 22  2  0  0  0  0
 14 23  1  0  0  0  0
 15 35  1  0  0  0  0
 15 36  1  0  0  0  0
 15 37  1  0  0  0  0
 16 17  1  0  0  0  0
 16 18  1  0  0  0  0
 16 38  1  0  0  0  0
 16 39  1  0  0  0  0
 17 19  1  0  0  0  0
 17 40  1  0  0  0  0
 17 41  1  0  0  0  0
 18 20  1  0  0  0  0
 18 42  1  0  0  0  0
 18 43  1  0  0  0  0
 19 21  1  0  0  0  0
 19 44  1  0  0  0  0
 19 45  1  0  0  0  0
 20 46  1  0  0  0  0
 20 47  1  0  0  0  0
 21 48  1  0  0  0  0
 21 49  1  0  0  0  0
 22 26  1  0  0  0  0
 22 50  1  0  0  0  0
 23 27  2  0  0  0  0
 23 51  1  0  0  0  0
 24 25  1  0  0  0  0
 25 26  2  0  0  0  0
 25 27  1  0  0  0  0
 26 52  1  0  0  0  0
 27 53  1  0  0  0  0
M  END
> <PUBCHEM_COMPOUND_CID>
2905309

> <PUBCHEM_CONFORMER_RMSD>
0.8

> <PUBCHEM_MMFF94_PARTIAL_CHARGES>
28
1 -0.57
10 0.57
11 0.57
12 -0.28
13 -0.29
14 0.12
15 0.14
2 -0.57
20 0.3
21 0.3
22 -0.15
23 -0.15
24 0.54
25 0.09
26 -0.15
27 -0.15
3 -0.57
34 0.15
4 -0.24
5 -0.66
50 0.15
51 0.15
52 0.15
53 0.15
6 0.06
7 0.06
8 0.14
9 0.14

> <PUBCHEM_EFFECTIVE_ROTOR_COUNT>
5

> <PUBCHEM_PHARMACOPHORE_FEATURES>
7
1 1 acceptor
1 2 acceptor
1 3 acceptor
5 4 6 7 10 11 rings
6 14 22 23 25 26 27 rings
6 6 7 8 9 12 13 rings
7 5 16 17 18 19 20 21 rings

> <PUBCHEM_HEAVY_ATOM_COUNT>
27

> <PUBCHEM_ATOM_DEF_STEREO_COUNT>
0

> <PUBCHEM_ATOM_UDEF_STEREO_COUNT>
2

> <PUBCHEM_BOND_DEF_STEREO_COUNT>
0

> <PUBCHEM_BOND_UDEF_STEREO_COUNT>
0

> <PUBCHEM_ISOTOPIC_ATOM_COUNT>
0

> <PUBCHEM_COMPONENT_COUNT>
1

> <PUBCHEM_CACTVS_TAUTO_COUNT>
4

> <PUBCHEM_CONFORMER_ID>
002C54DD00000006

> <PUBCHEM_MMFF94_ENERGY>
71.4508

> <PUBCHEM_FEATURE_SELFOVERLAP>
-7.036

> <PUBCHEM_SHAPE_MULTIPOLES>
528.08
17.46
2.53
1.55
6.38
13.35
-0.41
0.95
-7.92
-9.04
-1.37
-1.21
4.47
26.1

> <PUBCHEM_SHAPE_SELFOVERLAP>
1135.313

> <PUBCHEM_SHAPE_VOLUME>
286.7

> <PUBCHEM_COORDINATE_TYPE>
2
5
255

$$$$
576973
  -OEChem-06081017553D

 36 38  0     0  0  0  0  0  0999 V2000
    1.6559   -2.5542   -0.1452 O   0  0  0  0  0  0  0  0  0  0  0  0
   -0.0741   -1.1051    0.4690 N   0  0  0  0  0  0  0  0  0  0  0  0
   -1.0709   -2.1685    0.5709 C   0  0  0  0  0  0  0  0  0  0  0  0
   -2.2432   -1.8856   -0.3606 C   0  0  0  0  0  0  0  0  0  0  0  0
   -0.5487    0.2477    0.7987 C   0  0  0  0  0  0  0  0  0  0  0  0
   -2.7941   -0.5008   -0.1408 C   0  0  0  0  0  0  0  0  0  0  0  0
   -1.9789    0.5137    0.3927 C   0  0  0  0  0  0  0  0  0  0  0  0
    1.2449   -1.4284    0.1327 C   0  0  0  0  0  0  0  0  0  0  0  0
   -4.1115   -0.2059   -0.5173 C   0  0  0  0  0  0  0  0  0  0  0  0
   -2.5094    1.8000    0.5692 C   0  0  0  0  0  0  0  0  0  0  0  0
    2.2411   -0.3461    0.1095 C   0  0  0  0  0  0  0  0  0  0  0  0
   -4.6253    1.0784   -0.3414 C   0  0  0  0  0  0  0  0  0  0  0  0
   -3.8261    2.0798    0.2041 C   0  0  0  0  0  0  0  0  0  0  0  0
    2.4835    0.3822   -1.0532 C   0  0  0  0  0  0  0  0  0  0  0  0
    2.9451   -0.0581    1.2771 C   0  0  0  0  0  0  0  0  0  0  0  0
    3.4339    1.4033   -1.0484 C   0  0  0  0  0  0  0  0  0  0  0  0
    1.7425    0.0916   -2.3177 C   0  0  0  0  0  0  0  0  0  0  0  0
    3.8955    0.9629    1.2817 C   0  0  0  0  0  0  0  0  0  0  0  0
    4.1400    1.6934    0.1191 C   0  0  0  0  0  0  0  0  0  0  0  0
   -1.4009   -2.2061    1.6166 H   0  0  0  0  0  0  0  0  0  0  0  0
   -0.6324   -3.1425    0.3310 H   0  0  0  0  0  0  0  0  0  0  0  0
   -3.0232   -2.6368   -0.1908 H   0  0  0  0  0  0  0  0  0  0  0  0
   -1.9179   -1.9631   -1.4052 H   0  0  0  0  0  0  0  0  0  0  0  0
    0.0963    0.9997    0.3373 H   0  0  0  0  0  0  0  0  0  0  0  0
   -0.4645    0.3469    1.8876 H   0  0  0  0  0  0  0  0  0  0  0  0
   -4.7449   -0.9771   -0.9484 H   0  0  0  0  0  0  0  0  0  0  0  0
   -1.8953    2.5922    0.9903 H   0  0  0  0  0  0  0  0  0  0  0  0
   -5.6488    1.2977   -0.6311 H   0  0  0  0  0  0  0  0  0  0  0  0
   -4.2267    3.0798    0.3422 H   0  0  0  0  0  0  0  0  0  0  0  0
    2.7626   -0.6205    2.1891 H   0  0  0  0  0  0  0  0  0  0  0  0
    3.6367    1.9828   -1.9451 H   0  0  0  0  0  0  0  0  0  0  0  0
    0.6717    0.2797   -2.1887 H   0  0  0  0  0  0  0  0  0  0  0  0
    2.0868    0.7221   -3.1449 H   0  0  0  0  0  0  0  0  0  0  0  0
    1.8933   -0.9494   -2.6219 H   0  0  0  0  0  0  0  0  0  0  0  0
    4.4450    1.1891    2.1907 H   0  0  0  0  0  0  0  0  0  0  0  0
    4.8799    2.4884    0.1230 H   0  0  0  0  0  0  0  0  0  0  0  0
  1  8  2  0  0  0  0
  2  3  1  0  0  0  0
  2  5  1  0  0  0  0
  2  8  1  0  0  0  0
  3  4  1  0  0  0  0
  3 20  1  0  0  0  0
  3 21  1  0  0  0  0
  4  6  1  0  0  0  0
  4 22  1  0  0  0  0
  4 23  1  0  0  0  0
  5  7  1  0  0  0  0
  5 24  1  0  0  0  0
  5 25  1  0  0  0  0
  6  7  1  0  0  0  0
  6  9  2  0  0  0  0
  7 10  2  0  0  0  0
  8 11  1  0  0  0  0
  9 12  1  0  0  0  0
  9 26  1  0  0  0  0
 10 13  1  0  0  0  0
 10 27  1  0  0  0  0
 11 14  1  0  0  0  0
 11 15  2  0  0  0  0
 12 13  2  0  0  0  0
 12 28  1  0  0  0  0
 13 29  1  0  0  0  0
 14 16  2  0  0  0  0
 14 17  1  0  0  0  0
 15 18  1  0  0  0  0
 15 30  1  0  0  0  0
 16 19  1  0  0  0  0
 16 31  1  0  0  0  0
 17 32  1  0  0  0  0
 17 33  1  0  0  0  0
 17 34  1  0  0  0  0
 18 19  2  0  0  0  0
 18 35  1  0  0  0  0
 19 36  1  0  0  0  0
M  END
> <PUBCHEM_COMPOUND_CID>
576973

> <PUBCHEM_CONFORMER_RMSD>
0.6

> <PUBCHEM_MMFF94_PARTIAL_CHARGES>
27
1 -0.57
10 -0.15
11 0.09
12 -0.15
13 -0.15
14 -0.14
15 -0.15
16 -0.15
17 0.14
18 -0.15
19 -0.15
2 -0.66
26 0.15
27 0.15
28 0.15
29 0.15
3 0.3
30 0.15
31 0.15
35 0.15
36 0.15
4 0.14
5 0.44
6 -0.14
7 -0.14
8 0.54
9 -0.15

> <PUBCHEM_EFFECTIVE_ROTOR_COUNT>
2.8

> <PUBCHEM_PHARMACOPHORE_FEATURES>
4
1 1 acceptor
6 11 14 15 16 18 19 rings
6 2 3 4 5 6 7 rings
6 6 7 9 10 12 13 rings

> <PUBCHEM_HEAVY_ATOM_COUNT>
19

> <PUBCHEM_ATOM_DEF_STEREO_COUNT>
0

> <PUBCHEM_ATOM_UDEF_STEREO_COUNT>
0

> <PUBCHEM_BOND_DEF_STEREO_COUNT>
0

> <PUBCHEM_BOND_UDEF_STEREO_COUNT>
0

> <PUBCHEM_ISOTOPIC_ATOM_COUNT>
0

> <PUBCHEM_COMPONENT_COUNT>
1

> <PUBCHEM_CACTVS_TAUTO_COUNT>
1

> <PUBCHEM_CONFORMER_ID>
0008CDCD00000002

> <PUBCHEM_MMFF94_ENERGY>
55.787

> <PUBCHEM_FEATURE_SELFOVERLAP>
-4.004

> <PUBCHEM_SHAPE_MULTIPOLES>
380.16
8.62
2.3
1.32
1.38
-4.59
-0.48
-0.61
-4.74
2.3
-0.61
-0.97
-0.13
-12.51

> <PUBCHEM_SHAPE_SELFOVERLAP>
826.302

> <PUBCHEM_SHAPE_VOLUME>
206.6

> <PUBCHEM_COORDINATE_TYPE>
2
5
255

$$$$
12005304
  -OEChem-06081017553D

 54 57  0     0  0  0  0  0  0999 V2000
   -3.8265    1.8381   -0.6748 S   0  0  0  0  0  0  0  0  0  0  0  0
    3.2608   -3.4655   -0.4128 O   0  0  0  0  0  0  0  0  0  0  0  0
   -3.7727    1.7910   -2.1234 O   0  0  0  0  0  0  0  0  0  0  0  0
   -3.8611    3.1146    0.0130 O   0  0  0  0  0  0  0  0  0  0  0  0
    4.0105   -1.3912    0.3658 N   0  0  0  0  0  0  0  0  0  0  0  0
   -2.5576    0.8645   -0.0440 N   0  0  0  0  0  0  0  0  0  0  0  0
    5.3913   -1.8365    0.5387 C   0  0  0  0  0  0  0  0  0  0  0  0
    6.3344   -0.9678   -0.2844 C   0  0  0  0  0  0  0  0  0  0  0  0
    3.7361    0.0013    0.7527 C   0  0  0  0  0  0  0  0  0  0  0  0
    6.1182    0.4957    0.0005 C   0  0  0  0  0  0  0  0  0  0  0  0
    4.8756    0.9529    0.4751 C   0  0  0  0  0  0  0  0  0  0  0  0
    3.0463   -2.2989   -0.0860 C   0  0  0  0  0  0  0  0  0  0  0  0
    7.1433    1.4160   -0.2573 C   0  0  0  0  0  0  0  0  0  0  0  0
    4.6928    2.3227    0.7137 C   0  0  0  0  0  0  0  0  0  0  0  0
    1.6514   -1.8412   -0.1800 C   0  0  0  0  0  0  0  0  0  0  0  0
    6.9471    2.7761   -0.0206 C   0  0  0  0  0  0  0  0  0  0  0  0
    5.7239    3.2289    0.4671 C   0  0  0  0  0  0  0  0  0  0  0  0
   -0.9884   -0.9727   -0.3556 C   0  0  0  0  0  0  0  0  0  0  0  0
    1.1888   -1.2665   -1.3608 C   0  0  0  0  0  0  0  0  0  0  0  0
    0.8016   -1.9842    0.9134 C   0  0  0  0  0  0  0  0  0  0  0  0
   -2.4029   -0.5093   -0.4501 C   0  0  0  0  0  0  0  0  0  0  0  0
   -0.1335   -0.8313   -1.4487 C   0  0  0  0  0  0  0  0  0  0  0  0
   -0.5208   -1.5492    0.8254 C   0  0  0  0  0  0  0  0  0  0  0  0
   -5.2519    0.9325   -0.1524 C   0  0  0  0  0  0  0  0  0  0  0  0
   -5.8222    1.2195    1.0758 C   0  0  0  0  0  0  0  0  0  0  0  0
   -5.7712   -0.0470   -0.9811 C   0  0  0  0  0  0  0  0  0  0  0  0
   -7.4839   -0.4857    0.6656 C   0  0  0  0  0  0  0  0  0  0  0  0
   -6.9468    0.5047    1.4879 C   0  0  0  0  0  0  0  0  0  0  0  0
   -6.8960   -0.7616   -0.5690 C   0  0  0  0  0  0  0  0  0  0  0  0
   -8.6864   -1.2497    1.1062 C   0  0  0  0  0  0  0  0  0  0  0  0
    5.5050   -2.8861    0.2491 H   0  0  0  0  0  0  0  0  0  0  0  0
    5.6247   -1.7644    1.6083 H   0  0  0  0  0  0  0  0  0  0  0  0
    6.1617   -1.1378   -1.3543 H   0  0  0  0  0  0  0  0  0  0  0  0
    7.3688   -1.2506   -0.0581 H   0  0  0  0  0  0  0  0  0  0  0  0
    3.5373   -0.0113    1.8311 H   0  0  0  0  0  0  0  0  0  0  0  0
    2.8398    0.3655    0.2441 H   0  0  0  0  0  0  0  0  0  0  0  0
    8.1016    1.0766   -0.6424 H   0  0  0  0  0  0  0  0  0  0  0  0
    3.7416    2.6904    1.0907 H   0  0  0  0  0  0  0  0  0  0  0  0
    7.7483    3.4823   -0.2181 H   0  0  0  0  0  0  0  0  0  0  0  0
    5.5714    4.2881    0.6524 H   0  0  0  0  0  0  0  0  0  0  0  0
    1.8478   -1.1509   -2.2173 H   0  0  0  0  0  0  0  0  0  0  0  0
    1.1569   -2.4308    1.8382 H   0  0  0  0  0  0  0  0  0  0  0  0
   -2.7545   -0.6540   -1.4782 H   0  0  0  0  0  0  0  0  0  0  0  0
   -3.0355   -1.1442    0.1819 H   0  0  0  0  0  0  0  0  0  0  0  0
   -0.4850   -0.3819   -2.3738 H   0  0  0  0  0  0  0  0  0  0  0  0
   -1.1761   -1.6633    1.6849 H   0  0  0  0  0  0  0  0  0  0  0  0
   -2.2026    1.1062    0.8899 H   0  0  0  0  0  0  0  0  0  0  0  0
   -5.4142    1.9806    1.7336 H   0  0  0  0  0  0  0  0  0  0  0  0
   -5.3259   -0.2797   -1.9433 H   0  0  0  0  0  0  0  0  0  0  0  0
   -7.3937    0.7260    2.4535 H   0  0  0  0  0  0  0  0  0  0  0  0
   -7.3035   -1.5329   -1.2172 H   0  0  0  0  0  0  0  0  0  0  0  0
   -8.3816   -2.1416    1.6627 H   0  0  0  0  0  0  0  0  0  0  0  0
   -9.3298   -0.6383    1.7481 H   0  0  0  0  0  0  0  0  0  0  0  0
   -9.2929   -1.5611    0.2489 H   0  0  0  0  0  0  0  0  0  0  0  0
  1  3  2  0  0  0  0
  1  4  2  0  0  0  0
  1  6  1  0  0  0  0
  1 24  1  0  0  0  0
  2 12  2  0  0  0  0
  5  7  1  0  0  0  0
  5  9  1  0  0  0  0
  5 12  1  0  0  0  0
  6 21  1  0  0  0  0
  6 47  1  0  0  0  0
  7  8  1  0  0  0  0
  7 31  1  0  0  0  0
  7 32  1  0  0  0  0
  8 10  1  0  0  0  0
  8 33  1  0  0  0  0
  8 34  1  0  0  0  0
  9 11  1  0  0  0  0
  9 35  1  0  0  0  0
  9 36  1  0  0  0  0
 10 11  1  0  0  0  0
 10 13  2  0  0  0  0
 11 14  2  0  0  0  0
 12 15  1  0  0  0  0
 13 16  1  0  0  0  0
 13 37  1  0  0  0  0
 14 17  1  0  0  0  0
 14 38  1  0  0  0  0
 15 19  2  0  0  0  0
 15 20  1  0  0  0  0
 16 17  2  0  0  0  0
 16 39  1  0  0  0  0
 17 40  1  0  0  0  0
 18 21  1  0  0  0  0
 18 22  2  0  0  0  0
 18 23  1  0  0  0  0
 19 22  1  0  0  0  0
 19 41  1  0  0  0  0
 20 23  2  0  0  0  0
 20 42  1  0  0  0  0
 21 43  1  0  0  0  0
 21 44  1  0  0  0  0
 22 45  1  0  0  0  0
 23 46  1  0  0  0  0
 24 25  2  0  0  0  0
 24 26  1  0  0  0  0
 25 28  1  0  0  0  0
 25 48  1  0  0  0  0
 26 29  2  0  0  0  0
 26 49  1  0  0  0  0
 27 28  2  0  0  0  0
 27 29  1  0  0  0  0
 27 30  1  0  0  0  0
 28 50  1  0  0  0  0
 29 51  1  0  0  0  0
 30 52  1  0  0  0  0
 30 53  1  0  0  0  0
 30 54  1  0  0  0  0
M  END
> <PUBCHEM_COMPOUND_CID>
12005304

> <PUBCHEM_CONFORMER_RMSD>
0.8

> <PUBCHEM_MMFF94_PARTIAL_CHARGES>
43
1 1.45
10 -0.14
11 -0.14
12 0.54
13 -0.15
14 -0.15
15 0.09
16 -0.15
17 -0.15
18 -0.14
19 -0.15
2 -0.57
20 -0.15
21 0.5
22 -0.15
23 -0.15
24 -0.01
25 -0.15
26 -0.15
27 -0.14
28 -0.15
29 -0.15
3 -0.65
30 0.14
37 0.15
38 0.15
39 0.15
4 -0.65
40 0.15
41 0.15
42 0.15
45 0.15
46 0.15
47 0.42
48 0.15
49 0.15
5 -0.66
50 0.15
51 0.15
6 -0.91
7 0.3
8 0.14
9 0.44

> <PUBCHEM_EFFECTIVE_ROTOR_COUNT>
6.8

> <PUBCHEM_PHARMACOPHORE_FEATURES>
8
1 2 acceptor
1 3 acceptor
1 4 acceptor
1 6 donor
6 10 11 13 14 16 17 rings
6 15 18 19 20 22 23 rings
6 24 25 26 27 28 29 rings
6 5 7 8 9 10 11 rings

> <PUBCHEM_HEAVY_ATOM_COUNT>
30

> <PUBCHEM_ATOM_DEF_STEREO_COUNT>
0

> <PUBCHEM_ATOM_UDEF_STEREO_COUNT>
0

> <PUBCHEM_BOND_DEF_STEREO_COUNT>
0

> <PUBCHEM_BOND_UDEF_STEREO_COUNT>
0

> <PUBCHEM_ISOTOPIC_ATOM_COUNT>
0

> <PUBCHEM_COMPONENT_COUNT>
1

> <PUBCHEM_CACTVS_TAUTO_COUNT>
1

> <PUBCHEM_CONFORMER_ID>
00B72FB800000001

> <PUBCHEM_MMFF94_ENERGY>
70.011

> <PUBCHEM_FEATURE_SELFOVERLAP>
-8.008

> <PUBCHEM_SHAPE_MULTIPOLES>
593.67
25.03
3.32
1.23
15.29
10.23
-5.22
8.39
-4.47
-6.06
-10.3
3.55
26.93
21.25

> <PUBCHEM_SHAPE_SELFOVERLAP>
1274.193

> <PUBCHEM_SHAPE_VOLUME>
326.6

> <PUBCHEM_COORDINATE_TYPE>
2
5
255

$$$$
1242037
  -OEChem-06081017553D

 48 50  0     0  0  0  0  0  0999 V2000
    2.1476   -3.9023   -0.0950 Cl  0  0  0  0  0  0  0  0  0  0  0  0
   -5.4064    2.0220    1.1105 O   0  0  0  0  0  0  0  0  0  0  0  0
    0.7121   -1.7451    1.6114 O   0  0  0  0  0  0  0  0  0  0  0  0
   -6.0831    0.2726   -0.2845 N   0  0  0  0  0  0  0  0  0  0  0  0
    0.3331   -0.2423   -0.1567 N   0  0  0  0  0  0  0  0  0  0  0  0
    5.3986    1.0203   -0.0906 N   0  0  0  0  0  0  0  0  0  0  0  0
    7.1080    2.3801   -0.2916 N   0  0  0  0  0  0  0  0  0  0  0  0
    6.0113    3.1170    0.1089 N   0  0  0  0  0  0  0  0  0  0  0  0
   -5.7065   -0.8582   -1.1301 C   0  0  0  0  0  0  0  0  0  0  0  0
   -7.5118    0.5346   -0.1813 C   0  0  0  0  0  0  0  0  0  0  0  0
   -5.1273    1.0573    0.3863 C   0  0  0  0  0  0  0  0  0  0  0  0
   -3.7188    0.7230    0.2467 C   0  0  0  0  0  0  0  0  0  0  0  0
   -1.0175    0.0798   -0.0215 C   0  0  0  0  0  0  0  0  0  0  0  0
   -5.4865   -0.4284   -2.5659 C   0  0  0  0  0  0  0  0  0  0  0  0
   -8.1331   -0.2248    0.9727 C   0  0  0  0  0  0  0  0  0  0  0  0
   -2.9658    1.2899   -0.7813 C   0  0  0  0  0  0  0  0  0  0  0  0
   -3.1213   -0.1656    1.1407 C   0  0  0  0  0  0  0  0  0  0  0  0
   -1.6151    0.9683   -0.9155 C   0  0  0  0  0  0  0  0  0  0  0  0
   -1.7706   -0.4873    1.0067 C   0  0  0  0  0  0  0  0  0  0  0  0
    2.5298   -1.2236    0.2568 C   0  0  0  0  0  0  0  0  0  0  0  0
    4.6277   -0.1280   -0.0887 C   0  0  0  0  0  0  0  0  0  0  0  0
    3.2791   -0.0629    0.2619 C   0  0  0  0  0  0  0  0  0  0  0  0
    1.0980   -1.1064    0.6384 C   0  0  0  0  0  0  0  0  0  0  0  0
    3.0742   -2.4451   -0.0844 C   0  0  0  0  0  0  0  0  0  0  0  0
    5.1995   -1.3514   -0.4371 C   0  0  0  0  0  0  0  0  0  0  0  0
    4.4228   -2.5100   -0.4351 C   0  0  0  0  0  0  0  0  0  0  0  0
    6.7227    1.1291   -0.4055 C   0  0  0  0  0  0  0  0  0  0  0  0
    4.9990    2.2874    0.2238 C   0  0  0  0  0  0  0  0  0  0  0  0
   -4.8000   -1.3379   -0.7521 H   0  0  0  0  0  0  0  0  0  0  0  0
   -6.4965   -1.6164   -1.0819 H   0  0  0  0  0  0  0  0  0  0  0  0
   -7.6563    1.6080   -0.0149 H   0  0  0  0  0  0  0  0  0  0  0  0
   -8.0029    0.2812   -1.1269 H   0  0  0  0  0  0  0  0  0  0  0  0
   -6.4014   -0.0044   -2.9931 H   0  0  0  0  0  0  0  0  0  0  0  0
   -4.7037    0.3258   -2.6635 H   0  0  0  0  0  0  0  0  0  0  0  0
   -5.2008   -1.2903   -3.1773 H   0  0  0  0  0  0  0  0  0  0  0  0
   -8.0217   -1.3061    0.8430 H   0  0  0  0  0  0  0  0  0  0  0  0
   -7.6607    0.0458    1.9230 H   0  0  0  0  0  0  0  0  0  0  0  0
   -9.2014    0.0009    1.0464 H   0  0  0  0  0  0  0  0  0  0  0  0
   -3.4170    1.9921   -1.4774 H   0  0  0  0  0  0  0  0  0  0  0  0
   -3.7002   -0.6131    1.9447 H   0  0  0  0  0  0  0  0  0  0  0  0
   -1.0398    1.4193   -1.7201 H   0  0  0  0  0  0  0  0  0  0  0  0
   -1.3818   -1.1826    1.7369 H   0  0  0  0  0  0  0  0  0  0  0  0
    0.8099    0.2103   -0.9339 H   0  0  0  0  0  0  0  0  0  0  0  0
    2.7993    0.8672    0.5481 H   0  0  0  0  0  0  0  0  0  0  0  0
    6.2420   -1.4599   -0.7178 H   0  0  0  0  0  0  0  0  0  0  0  0
    4.8830   -3.4560   -0.7093 H   0  0  0  0  0  0  0  0  0  0  0  0
    7.3685    0.3163   -0.7052 H   0  0  0  0  0  0  0  0  0  0  0  0
    4.0027    2.5790    0.5234 H   0  0  0  0  0  0  0  0  0  0  0  0
  1 24  1  0  0  0  0
  2 11  2  0  0  0  0
  3 23  2  0  0  0  0
  4  9  1  0  0  0  0
  4 10  1  0  0  0  0
  4 11  1  0  0  0  0
  5 13  1  0  0  0  0
  5 23  1  0  0  0  0
  5 43  1  0  0  0  0
  6 21  1  0  0  0  0
  6 27  1  0  0  0  0
  6 28  1  0  0  0  0
  7  8  1  0  0  0  0
  7 27  2  0  0  0  0
  8 28  2  0  0  0  0
  9 14  1  0  0  0  0
  9 29  1  0  0  0  0
  9 30  1  0  0  0  0
 10 15  1  0  0  0  0
 10 31  1  0  0  0  0
 10 32  1  0  0  0  0
 11 12  1  0  0  0  0
 12 16  2  0  0  0  0
 12 17  1  0  0  0  0
 13 18  2  0  0  0  0
 13 19  1  0  0  0  0
 14 33  1  0  0  0  0
 14 34  1  0  0  0  0
 14 35  1  0  0  0  0
 15 36  1  0  0  0  0
 15 37  1  0  0  0  0
 15 38  1  0  0  0  0
 16 18  1  0  0  0  0
 16 39  1  0  0  0  0
 17 19  2  0  0  0  0
 17 40  1  0  0  0  0
 18 41  1  0  0  0  0
 19 42  1  0  0  0  0
 20 22  1  0  0  0  0
 20 23  1  0  0  0  0
 20 24  2  0  0  0  0
 21 22  2  0  0  0  0
 21 25  1  0  0  0  0
 22 44  1  0  0  0  0
 24 26  1  0  0  0  0
 25 26  2  0  0  0  0
 25 45  1  0  0  0  0
 26 46  1  0  0  0  0
 27 47  1  0  0  0  0
 28 48  1  0  0  0  0
M  END
> <PUBCHEM_COMPOUND_CID>
1242037

> <PUBCHEM_CONFORMER_RMSD>
1

> <PUBCHEM_MMFF94_PARTIAL_CHARGES>
36
1 -0.18
10 0.3
11 0.54
12 0.09
13 0.12
16 -0.15
17 -0.15
18 -0.15
19 -0.15
2 -0.57
20 0.09
21 -0.02
22 -0.15
23 0.54
24 0.18
25 -0.15
26 -0.15
27 0.04
28 0.04
3 -0.57
39 0.15
4 -0.66
40 0.15
41 0.15
42 0.15
43 0.37
44 0.15
45 0.15
46 0.15
47 0.15
48 0.15
5 -0.55
6 0.33
7 -0.34
8 -0.34
9 0.3

> <PUBCHEM_EFFECTIVE_ROTOR_COUNT>
8

> <PUBCHEM_PHARMACOPHORE_FEATURES>
8
1 2 acceptor
1 3 acceptor
1 5 donor
3 6 7 27 cation
3 6 8 28 cation
5 6 7 8 27 28 rings
6 12 13 16 17 18 19 rings
6 20 21 22 24 25 26 rings

> <PUBCHEM_HEAVY_ATOM_COUNT>
28

> <PUBCHEM_ATOM_DEF_STEREO_COUNT>
0

> <PUBCHEM_ATOM_UDEF_STEREO_COUNT>
0

> <PUBCHEM_BOND_DEF_STEREO_COUNT>
0

> <PUBCHEM_BOND_UDEF_STEREO_COUNT>
0

> <PUBCHEM_ISOTOPIC_ATOM_COUNT>
0

> <PUBCHEM_COMPONENT_COUNT>
1

> <PUBCHEM_CACTVS_TAUTO_COUNT>
3

> <PUBCHEM_CONFORMER_ID>
0012F3B500000001

> <PUBCHEM_MMFF94_ENERGY>
83.0116

> <PUBCHEM_FEATURE_SELFOVERLAP>
-8.493

> <PUBCHEM_SHAPE_MULTIPOLES>
541.45
21.84
3
1.24
8.98
-8.98
-2.47
2.67
1.43
6.15
-4.04
-2.05
27.38
-25.12

> <PUBCHEM_SHAPE_SELFOVERLAP>
1156.907

> <PUBCHEM_SHAPE_VOLUME>
301.6

> <PUBCHEM_COORDINATE_TYPE>
2
5
255

$$$$
1164878
  -OEChem-06081017553D

 44 47  0     0  0  0  0  0  0999 V2000
    1.7891    3.4184   -0.1538 F   0  0  0  0  0  0  0  0  0  0  0  0
    0.2833    2.4027   -1.3594 F   0  0  0  0  0  0  0  0  0  0  0  0
    0.0227    2.5666    0.7985 F   0  0  0  0  0  0  0  0  0  0  0  0
   -2.1441   -3.2233   -0.6727 O   0  0  0  0  0  0  0  0  0  0  0  0
   -3.0283   -1.2846    0.2520 N   0  0  0  0  0  0  0  0  0  0  0  0
    2.8950   -1.4579    0.3464 N   0  0  0  0  0  0  0  0  0  0  0  0
    0.9223   -0.1136    0.0082 N   0  0  0  0  0  0  0  0  0  0  0  0
   -0.4233   -0.2635   -0.1423 N   0  0  0  0  0  0  0  0  0  0  0  0
    5.0270   -0.4013    0.5227 C   0  0  0  0  0  0  0  0  0  0  0  0
    5.9009    0.2373   -0.5056 C   0  0  0  0  0  0  0  0  0  0  0  0
    5.8257   -1.2579   -0.4029 C   0  0  0  0  0  0  0  0  0  0  0  0
    3.5521   -0.3407    0.3407 C   0  0  0  0  0  0  0  0  0  0  0  0
   -4.8309    0.9849    0.2400 C   0  0  0  0  0  0  0  0  0  0  0  0
   -4.8763   -0.0950   -0.8528 C   0  0  0  0  0  0  0  0  0  0  0  0
   -3.4221    1.0719    0.8487 C   0  0  0  0  0  0  0  0  0  0  0  0
   -4.3615   -1.4358   -0.3327 C   0  0  0  0  0  0  0  0  0  0  0  0
   -2.9492   -0.2956    1.3358 C   0  0  0  0  0  0  0  0  0  0  0  0
    2.9926    1.0255    0.1703 C   0  0  0  0  0  0  0  0  0  0  0  0
   -5.2668    2.3386   -0.3154 C   0  0  0  0  0  0  0  0  0  0  0  0
    1.5473   -1.3530    0.1765 C   0  0  0  0  0  0  0  0  0  0  0  0
   -1.9779   -2.1034   -0.1906 C   0  0  0  0  0  0  0  0  0  0  0  0
    1.6612    1.0809    0.0066 C   0  0  0  0  0  0  0  0  0  0  0  0
   -0.6243   -1.5758   -0.0681 C   0  0  0  0  0  0  0  0  0  0  0  0
    0.5528   -2.3029    0.1280 C   0  0  0  0  0  0  0  0  0  0  0  0
    0.9326    2.3775   -0.1782 C   0  0  0  0  0  0  0  0  0  0  0  0
    5.3620   -0.3496    1.5538 H   0  0  0  0  0  0  0  0  0  0  0  0
    6.8094    0.7203   -0.1665 H   0  0  0  0  0  0  0  0  0  0  0  0
    5.4566    0.6946   -1.3812 H   0  0  0  0  0  0  0  0  0  0  0  0
    5.3216   -1.7886   -1.2015 H   0  0  0  0  0  0  0  0  0  0  0  0
    6.6841   -1.7786    0.0043 H   0  0  0  0  0  0  0  0  0  0  0  0
   -5.5344    0.7022    1.0345 H   0  0  0  0  0  0  0  0  0  0  0  0
   -4.2598    0.2198   -1.7050 H   0  0  0  0  0  0  0  0  0  0  0  0
   -5.9011   -0.2149   -1.2230 H   0  0  0  0  0  0  0  0  0  0  0  0
   -3.4187    1.7786    1.6867 H   0  0  0  0  0  0  0  0  0  0  0  0
   -2.7203    1.4579    0.0988 H   0  0  0  0  0  0  0  0  0  0  0  0
   -5.0239   -1.8312    0.4460 H   0  0  0  0  0  0  0  0  0  0  0  0
   -4.3373   -2.1635   -1.1507 H   0  0  0  0  0  0  0  0  0  0  0  0
   -1.9510   -0.2423    1.7756 H   0  0  0  0  0  0  0  0  0  0  0  0
   -3.6106   -0.6526    2.1355 H   0  0  0  0  0  0  0  0  0  0  0  0
    3.6384    1.8930    0.1898 H   0  0  0  0  0  0  0  0  0  0  0  0
   -6.2817    2.2822   -0.7226 H   0  0  0  0  0  0  0  0  0  0  0  0
   -5.2627    3.1001    0.4715 H   0  0  0  0  0  0  0  0  0  0  0  0
   -4.5990    2.6751   -1.1156 H   0  0  0  0  0  0  0  0  0  0  0  0
    0.6795   -3.3718    0.2241 H   0  0  0  0  0  0  0  0  0  0  0  0
  1 25  1  0  0  0  0
  2 25  1  0  0  0  0
  3 25  1  0  0  0  0
  4 21  2  0  0  0  0
  5 16  1  0  0  0  0
  5 17  1  0  0  0  0
  5 21  1  0  0  0  0
  6 12  2  0  0  0  0
  6 20  1  0  0  0  0
  7  8  1  0  0  0  0
  7 20  1  0  0  0  0
  7 22  1  0  0  0  0
  8 23  2  0  0  0  0
  9 10  1  0  0  0  0
  9 11  1  0  0  0  0
  9 12  1  0  0  0  0
  9 26  1  0  0  0  0
 10 11  1  0  0  0  0
 10 27  1  0  0  0  0
 10 28  1  0  0  0  0
 11 29  1  0  0  0  0
 11 30  1  0  0  0  0
 12 18  1  0  0  0  0
 13 14  1  0  0  0  0
 13 15  1  0  0  0  0
 13 19  1  0  0  0  0
 13 31  1  0  0  0  0
 14 16  1  0  0  0  0
 14 32  1  0  0  0  0
 14 33  1  0  0  0  0
 15 17  1  0  0  0  0
 15 34  1  0  0  0  0
 15 35  1  0  0  0  0
 16 36  1  0  0  0  0
 16 37  1  0  0  0  0
 17 38  1  0  0  0  0
 17 39  1  0  0  0  0
 18 22  2  0  0  0  0
 18 40  1  0  0  0  0
 19 41  1  0  0  0  0
 19 42  1  0  0  0  0
 19 43  1  0  0  0  0
 20 24  2  0  0  0  0
 21 23  1  0  0  0  0
 22 25  1  0  0  0  0
 23 24  1  0  0  0  0
 24 44  1  0  0  0  0
M  END
> <PUBCHEM_COMPOUND_CID>
1164878

> <PUBCHEM_CONFORMER_RMSD>
0.8

> <PUBCHEM_MMFF94_PARTIAL_CHARGES>
28
1 -0.34
10 -0.2
11 -0.2
12 0.44
16 0.3
17 0.3
18 -0.14
2 -0.34
20 -0.03
21 0.72
22 -0.17
23 0.2
24 -0.15
25 1.16
26 0.1
27 0.1
28 0.1
29 0.1
3 -0.34
30 0.1
4 -0.57
40 0.15
44 0.15
5 -0.66
6 -0.58
7 0.6
8 -0.71
9 -0.1

> <PUBCHEM_EFFECTIVE_ROTOR_COUNT>
5.8

> <PUBCHEM_PHARMACOPHORE_FEATURES>
6
1 4 acceptor
1 6 acceptor
1 8 acceptor
5 7 8 20 23 24 rings
6 5 13 14 15 16 17 rings
6 6 7 12 18 20 22 rings

> <PUBCHEM_HEAVY_ATOM_COUNT>
25

> <PUBCHEM_ATOM_DEF_STEREO_COUNT>
0

> <PUBCHEM_ATOM_UDEF_STEREO_COUNT>
0

> <PUBCHEM_BOND_DEF_STEREO_COUNT>
0

> <PUBCHEM_BOND_UDEF_STEREO_COUNT>
0

> <PUBCHEM_ISOTOPIC_ATOM_COUNT>
0

> <PUBCHEM_COMPONENT_COUNT>
1

> <PUBCHEM_CACTVS_TAUTO_COUNT>
1

> <PUBCHEM_CONFORMER_ID>
0011C64E00000002

> <PUBCHEM_MMFF94_ENERGY>
46.7996

> <PUBCHEM_FEATURE_SELFOVERLAP>
-6.025

> <PUBCHEM_SHAPE_MULTIPOLES>
466.87
12.05
3.2
0.87
1.84
1.84
-1.44
2.25
-2.27
-0.77
-1.05
-1.22
5.99
0.94

> <PUBCHEM_SHAPE_SELFOVERLAP>
1009.057

> <PUBCHEM_SHAPE_VOLUME>
258.3

> <PUBCHEM_COORDINATE_TYPE>
2
5
255

$$$$
903076
  -OEChem-06081017553D

 34 35  0     0  0  0  0  0  0999 V2000
    6.0496    0.9647   -0.6979 Cl  0  0  0  0  0  0  0  0  0  0  0  0
    0.2633   -1.4841    1.6808 O   0  0  0  0  0  0  0  0  0  0  0  0
    1.2846    2.8317    0.1949 O   0  5  0  0  0  0  0  0  0  0  0  0
   -0.0731    1.1411    0.5557 O   0  0  0  0  0  0  0  0  0  0  0  0
   -0.1629   -1.5511   -0.5753 N   0  0  0  0  0  0  0  0  0  0  0  0
    1.0613    1.6045    0.2998 N   0  3  0  0  0  0  0  0  0  0  0  0
   -1.4726   -2.1475   -0.4401 C   0  0  0  0  0  0  0  0  0  0  0  0
   -2.5519   -1.1111   -0.3175 C   0  0  0  0  0  0  0  0  0  0  0  0
    1.9524   -0.6801    0.2270 C   0  0  0  0  0  0  0  0  0  0  0  0
   -3.1741   -0.6278   -1.4624 C   0  0  0  0  0  0  0  0  0  0  0  0
   -2.9176   -0.6450    0.9398 C   0  0  0  0  0  0  0  0  0  0  0  0
   -4.5496    0.8084   -0.0904 C   0  0  0  0  0  0  0  0  0  0  0  0
    0.6437   -1.2493    0.5257 C   0  0  0  0  0  0  0  0  0  0  0  0
   -4.1765    0.3354   -1.3484 C   0  0  0  0  0  0  0  0  0  0  0  0
   -3.9200    0.3183    1.0536 C   0  0  0  0  0  0  0  0  0  0  0  0
    2.1430    0.6976    0.1207 C   0  0  0  0  0  0  0  0  0  0  0  0
    3.0290   -1.5488    0.0480 C   0  0  0  0  0  0  0  0  0  0  0  0
    3.4100    1.2066   -0.1646 C   0  0  0  0  0  0  0  0  0  0  0  0
   -5.6210    1.8386    0.0314 C   0  0  0  0  0  0  0  0  0  0  0  0
    4.2960   -1.0399   -0.2373 C   0  0  0  0  0  0  0  0  0  0  0  0
    4.4865    0.3378   -0.3436 C   0  0  0  0  0  0  0  0  0  0  0  0
   -1.4855   -2.8196    0.4261 H   0  0  0  0  0  0  0  0  0  0  0  0
   -1.6396   -2.7727   -1.3248 H   0  0  0  0  0  0  0  0  0  0  0  0
    0.1745   -1.3409   -1.5105 H   0  0  0  0  0  0  0  0  0  0  0  0
   -2.8903   -0.9879   -2.4474 H   0  0  0  0  0  0  0  0  0  0  0  0
   -2.4399   -1.0214    1.8395 H   0  0  0  0  0  0  0  0  0  0  0  0
   -4.6604    0.7086   -2.2472 H   0  0  0  0  0  0  0  0  0  0  0  0
   -4.2035    0.6771    2.0396 H   0  0  0  0  0  0  0  0  0  0  0  0
    2.8939   -2.6245    0.1286 H   0  0  0  0  0  0  0  0  0  0  0  0
    3.5858    2.2765   -0.2532 H   0  0  0  0  0  0  0  0  0  0  0  0
   -5.4547    2.4805    0.9031 H   0  0  0  0  0  0  0  0  0  0  0  0
   -5.6430    2.4918   -0.8475 H   0  0  0  0  0  0  0  0  0  0  0  0
   -6.5975    1.3547    0.1333 H   0  0  0  0  0  0  0  0  0  0  0  0
    5.1255   -1.7288   -0.3745 H   0  0  0  0  0  0  0  0  0  0  0  0
  1 21  1  0  0  0  0
  2 13  2  0  0  0  0
  3  6  1  0  0  0  0
  4  6  2  0  0  0  0
  5  7  1  0  0  0  0
  5 13  1  0  0  0  0
  5 24  1  0  0  0  0
  6 16  1  0  0  0  0
  7  8  1  0  0  0  0
  7 22  1  0  0  0  0
  7 23  1  0  0  0  0
  8 10  2  0  0  0  0
  8 11  1  0  0  0  0
  9 13  1  0  0  0  0
  9 16  2  0  0  0  0
  9 17  1  0  0  0  0
 10 14  1  0  0  0  0
 10 25  1  0  0  0  0
 11 15  2  0  0  0  0
 11 26  1  0  0  0  0
 12 14  2  0  0  0  0
 12 15  1  0  0  0  0
 12 19  1  0  0  0  0
 14 27  1  0  0  0  0
 15 28  1  0  0  0  0
 16 18  1  0  0  0  0
 17 20  2  0  0  0  0
 17 29  1  0  0  0  0
 18 21  2  0  0  0  0
 18 30  1  0  0  0  0
 19 31  1  0  0  0  0
 19 32  1  0  0  0  0
 19 33  1  0  0  0  0
 20 21  1  0  0  0  0
 20 34  1  0  0  0  0
M  CHG  2   3  -1   6   1
M  END
> <PUBCHEM_COMPOUND_CID>
903076

> <PUBCHEM_CONFORMER_RMSD>
0.8

> <PUBCHEM_MMFF94_PARTIAL_CHARGES>
29
1 -0.18
10 -0.15
11 -0.15
12 -0.14
13 0.54
14 -0.15
15 -0.15
16 0.13
17 -0.15
18 -0.15
19 0.14
2 -0.57
20 -0.15
21 0.18
24 0.37
25 0.15
26 0.15
27 0.15
28 0.15
29 0.15
3 -0.52
30 0.15
34 0.15
4 -0.52
5 -0.73
6 0.91
7 0.44
8 -0.14
9 0.09

> <PUBCHEM_EFFECTIVE_ROTOR_COUNT>
5

> <PUBCHEM_PHARMACOPHORE_FEATURES>
7
1 2 acceptor
1 3 acceptor
1 3 anion
1 4 acceptor
1 5 donor
6 8 10 11 12 14 15 rings
6 9 16 17 18 20 21 rings

> <PUBCHEM_HEAVY_ATOM_COUNT>
21

> <PUBCHEM_ATOM_DEF_STEREO_COUNT>
0

> <PUBCHEM_ATOM_UDEF_STEREO_COUNT>
0

> <PUBCHEM_BOND_DEF_STEREO_COUNT>
0

> <PUBCHEM_BOND_UDEF_STEREO_COUNT>
0

> <PUBCHEM_ISOTOPIC_ATOM_COUNT>
0

> <PUBCHEM_COMPONENT_COUNT>
1

> <PUBCHEM_CACTVS_TAUTO_COUNT>
2

> <PUBCHEM_CONFORMER_ID>
000DC7A400000001

> <PUBCHEM_MMFF94_ENERGY>
64.5801

> <PUBCHEM_FEATURE_SELFOVERLAP>
-7.016

> <PUBCHEM_SHAPE_MULTIPOLES>
406.47
11.87
2.19
1.1
0.19
5.27
-2.38
3.51
-2.78
-3.89
-4.93
-1.54
0.57
11.62

> <PUBCHEM_SHAPE_SELFOVERLAP>
864.588

> <PUBCHEM_SHAPE_VOLUME>
226.7

> <PUBCHEM_COORDINATE_TYPE>
2
5
255

$$$$
1415522
  -OEChem-06081017553D

 49 52  0     0  0  0  0  0  0999 V2000
    0.5616   -6.6251   -0.1733 Cl  0  0  0  0  0  0  0  0  0  0  0  0
   -1.1449    2.4025    0.5862 S   0  0  0  0  0  0  0  0  0  0  0  0
    3.8498    3.4923   -0.7442 S   0  0  0  0  0  0  0  0  0  0  0  0
   -3.9556    1.1052    1.9819 O   0  0  0  0  0  0  0  0  0  0  0  0
   -4.3667    1.2678   -0.3137 N   0  0  0  0  0  0  0  0  0  0  0  0
    1.4775    2.1100    0.2340 N   0  0  0  0  0  0  0  0  0  0  0  0
   -1.8969   -1.3952    0.4563 N   0  0  0  0  0  0  0  0  0  0  0  0
    0.0437    0.1271    0.2992 C   0  0  0  0  0  0  0  0  0  0  0  0
    1.1655   -0.7048    0.1067 C   0  0  0  0  0  0  0  0  0  0  0  0
   -1.3510   -0.1533    0.4605 C   0  0  0  0  0  0  0  0  0  0  0  0
   -2.1047    0.9881    0.6247 C   0  0  0  0  0  0  0  0  0  0  0  0
    0.2807    1.4969    0.3502 C   0  0  0  0  0  0  0  0  0  0  0  0
   -3.5147    1.1266    0.8126 C   0  0  0  0  0  0  0  0  0  0  0  0
    2.4209   -0.1184   -0.0189 C   0  0  0  0  0  0  0  0  0  0  0  0
    1.0187   -2.1399    0.0391 C   0  0  0  0  0  0  0  0  0  0  0  0
    2.5109    1.2605    0.0516 C   0  0  0  0  0  0  0  0  0  0  0  0
   -5.8111    1.3970   -0.1817 C   0  0  0  0  0  0  0  0  0  0  0  0
   -3.8514    1.2929   -1.6809 C   0  0  0  0  0  0  0  0  0  0  0  0
    3.7878    1.9167   -0.0729 C   0  0  0  0  0  0  0  0  0  0  0  0
    1.1007   -2.9076    1.2023 C   0  0  0  0  0  0  0  0  0  0  0  0
    0.7950   -2.7638   -1.1899 C   0  0  0  0  0  0  0  0  0  0  0  0
   -6.2292    2.8474   -0.0558 C   0  0  0  0  0  0  0  0  0  0  0  0
   -3.7879   -0.0987   -2.2755 C   0  0  0  0  0  0  0  0  0  0  0  0
    0.9598   -4.2938    1.1370 C   0  0  0  0  0  0  0  0  0  0  0  0
    0.6540   -4.1500   -1.2554 C   0  0  0  0  0  0  0  0  0  0  0  0
    5.0401    1.4589    0.2798 C   0  0  0  0  0  0  0  0  0  0  0  0
    0.7363   -4.9150   -0.0918 C   0  0  0  0  0  0  0  0  0  0  0  0
    6.0602    2.4122   -0.0043 C   0  0  0  0  0  0  0  0  0  0  0  0
    5.5511    3.5635   -0.5636 C   0  0  0  0  0  0  0  0  0  0  0  0
    3.2988   -0.7392   -0.1768 H   0  0  0  0  0  0  0  0  0  0  0  0
   -6.1275    0.8593    0.7190 H   0  0  0  0  0  0  0  0  0  0  0  0
   -6.3036    0.9207   -1.0361 H   0  0  0  0  0  0  0  0  0  0  0  0
   -2.8573    1.7442   -1.7130 H   0  0  0  0  0  0  0  0  0  0  0  0
   -4.4992    1.9327   -2.2911 H   0  0  0  0  0  0  0  0  0  0  0  0
   -2.8945   -1.5422    0.5829 H   0  0  0  0  0  0  0  0  0  0  0  0
   -1.3783   -2.2549    0.3344 H   0  0  0  0  0  0  0  0  0  0  0  0
    1.2737   -2.4394    2.1685 H   0  0  0  0  0  0  0  0  0  0  0  0
    0.7272   -2.1822   -2.1064 H   0  0  0  0  0  0  0  0  0  0  0  0
   -7.3146    2.9224    0.0623 H   0  0  0  0  0  0  0  0  0  0  0  0
   -5.9426    3.4222   -0.9424 H   0  0  0  0  0  0  0  0  0  0  0  0
   -5.7580    3.3199    0.8125 H   0  0  0  0  0  0  0  0  0  0  0  0
   -3.0961   -0.7508   -1.7440 H   0  0  0  0  0  0  0  0  0  0  0  0
   -4.7711   -0.5806   -2.2632 H   0  0  0  0  0  0  0  0  0  0  0  0
   -3.4548   -0.0452   -3.3171 H   0  0  0  0  0  0  0  0  0  0  0  0
    1.0259   -4.8772    2.0518 H   0  0  0  0  0  0  0  0  0  0  0  0
    0.4798   -4.6203   -2.2197 H   0  0  0  0  0  0  0  0  0  0  0  0
    5.2317    0.4916    0.7276 H   0  0  0  0  0  0  0  0  0  0  0  0
    7.1136    2.2619    0.1930 H   0  0  0  0  0  0  0  0  0  0  0  0
    6.0968    4.4431   -0.8744 H   0  0  0  0  0  0  0  0  0  0  0  0
  1 27  1  0  0  0  0
  2 11  1  0  0  0  0
  2 12  1  0  0  0  0
  3 19  1  0  0  0  0
  3 29  1  0  0  0  0
  4 13  2  0  0  0  0
  5 13  1  0  0  0  0
  5 17  1  0  0  0  0
  5 18  1  0  0  0  0
  6 12  1  0  0  0  0
  6 16  2  0  0  0  0
  7 10  1  0  0  0  0
  7 35  1  0  0  0  0
  7 36  1  0  0  0  0
  8  9  1  0  0  0  0
  8 10  1  0  0  0  0
  8 12  2  0  0  0  0
  9 14  2  0  0  0  0
  9 15  1  0  0  0  0
 10 11  2  0  0  0  0
 11 13  1  0  0  0  0
 14 16  1  0  0  0  0
 14 30  1  0  0  0  0
 15 20  2  0  0  0  0
 15 21  1  0  0  0  0
 16 19  1  0  0  0  0
 17 22  1  0  0  0  0
 17 31  1  0  0  0  0
 17 32  1  0  0  0  0
 18 23  1  0  0  0  0
 18 33  1  0  0  0  0
 18 34  1  0  0  0  0
 19 26  2  0  0  0  0
 20 24  1  0  0  0  0
 20 37  1  0  0  0  0
 21 25  2  0  0  0  0
 21 38  1  0  0  0  0
 22 39  1  0  0  0  0
 22 40  1  0  0  0  0
 22 41  1  0  0  0  0
 23 42  1  0  0  0  0
 23 43  1  0  0  0  0
 23 44  1  0  0  0  0
 24 27  2  0  0  0  0
 24 45  1  0  0  0  0
 25 27  1  0  0  0  0
 25 46  1  0  0  0  0
 26 28  1  0  0  0  0
 26 47  1  0  0  0  0
 28 29  2  0  0  0  0
 28 48  1  0  0  0  0
 29 49  1  0  0  0  0
M  END
> <PUBCHEM_COMPOUND_CID>
1415522

> <PUBCHEM_CONFORMER_RMSD>
0.8

> <PUBCHEM_MMFF94_PARTIAL_CHARGES>
34
1 -0.18
10 0.08
11 -0.05
12 0.3
13 0.71
14 -0.15
16 0.36
17 0.3
18 0.3
19 -0.01
2 -0.08
20 -0.15
21 -0.15
24 -0.15
25 -0.15
26 -0.15
27 0.18
28 -0.15
29 -0.11
3 -0.08
30 0.15
35 0.4
36 0.4
37 0.15
38 0.15
4 -0.57
45 0.15
46 0.15
47 0.15
48 0.15
49 0.15
5 -0.66
6 -0.57
7 -0.88

> <PUBCHEM_EFFECTIVE_ROTOR_COUNT>
6

> <PUBCHEM_PHARMACOPHORE_FEATURES>
8
1 4 acceptor
1 6 acceptor
1 7 cation
1 7 donor
5 2 8 10 11 12 rings
5 3 19 26 28 29 rings
6 15 20 21 24 25 27 rings
6 6 8 9 12 14 16 rings

> <PUBCHEM_HEAVY_ATOM_COUNT>
29

> <PUBCHEM_ATOM_DEF_STEREO_COUNT>
0

> <PUBCHEM_ATOM_UDEF_STEREO_COUNT>
0

> <PUBCHEM_BOND_DEF_STEREO_COUNT>
0

> <PUBCHEM_BOND_UDEF_STEREO_COUNT>
0

> <PUBCHEM_ISOTOPIC_ATOM_COUNT>
0

> <PUBCHEM_COMPONENT_COUNT>
1

> <PUBCHEM_CACTVS_TAUTO_COUNT>
2

> <PUBCHEM_CONFORMER_ID>
0015996200000002

> <PUBCHEM_MMFF94_ENERGY>
74.0378

> <PUBCHEM_FEATURE_SELFOVERLAP>
-8.015

> <PUBCHEM_SHAPE_MULTIPOLES>
585.56
10.99
7.61
1.31
-0.68
-2.73
-2.65
3.13
4.44
2.42
-2
-3.24
12.89
-59.3

> <PUBCHEM_SHAPE_SELFOVERLAP>
1252.337

> <PUBCHEM_SHAPE_VOLUME>
329.9

> <PUBCHEM_COORDINATE_TYPE>
2
5
255

$$$$
666967
  -OEChem-06081017553D

 33 35  0     0  0  0  0  0  0999 V2000
    0.0029    0.2531   -1.3056 P   0  0  0  0  0  0  0  0  0  0  0  0
   -6.1093    0.4361    1.2149 F   0  0  0  0  0  0  0  0  0  0  0  0
    1.8288   -1.4024   -0.5155 O   0  0  0  0  0  0  0  0  0  0  0  0
    1.7937    1.5550   -0.0178 O   0  0  0  0  0  0  0  0  0  0  0  0
   -0.3045    1.2477   -2.3872 O   0  0  0  0  0  0  0  0  0  0  0  0
   -1.0774   -0.8303   -0.7251 N   0  0  0  0  0  0  0  0  0  0  0  0
    1.3429   -0.8366   -1.7318 C   0  0  0  0  0  0  0  0  0  0  0  0
    0.5006    1.0073    0.2256 C   0  0  0  0  0  0  0  0  0  0  0  0
    2.8480   -0.6788    0.0483 C   0  0  0  0  0  0  0  0  0  0  0  0
    2.8344    0.7068    0.2594 C   0  0  0  0  0  0  0  0  0  0  0  0
   -2.3578   -0.5081   -0.2310 C   0  0  0  0  0  0  0  0  0  0  0  0
    3.9591   -1.4310    0.4477 C   0  0  0  0  0  0  0  0  0  0  0  0
    3.9712    1.3314    0.7875 C   0  0  0  0  0  0  0  0  0  0  0  0
   -3.2219   -1.5223    0.1832 C   0  0  0  0  0  0  0  0  0  0  0  0
   -2.7622    0.8252   -0.1564 C   0  0  0  0  0  0  0  0  0  0  0  0
    5.0760   -0.8031    0.9974 C   0  0  0  0  0  0  0  0  0  0  0  0
    5.0864    0.5796    1.1569 C   0  0  0  0  0  0  0  0  0  0  0  0
   -4.4891   -1.2033    0.6715 C   0  0  0  0  0  0  0  0  0  0  0  0
   -4.0293    1.1440    0.3319 C   0  0  0  0  0  0  0  0  0  0  0  0
   -4.8928    0.1298    0.7459 C   0  0  0  0  0  0  0  0  0  0  0  0
    2.1362   -0.3213   -2.2876 H   0  0  0  0  0  0  0  0  0  0  0  0
    0.9870   -1.6526   -2.3690 H   0  0  0  0  0  0  0  0  0  0  0  0
    0.5038    0.3316    1.0904 H   0  0  0  0  0  0  0  0  0  0  0  0
   -0.1504    1.8462    0.4844 H   0  0  0  0  0  0  0  0  0  0  0  0
   -0.8797   -1.8271   -0.6717 H   0  0  0  0  0  0  0  0  0  0  0  0
    3.9688   -2.5098    0.3120 H   0  0  0  0  0  0  0  0  0  0  0  0
    3.9859    2.4088    0.9349 H   0  0  0  0  0  0  0  0  0  0  0  0
   -2.9210   -2.5655    0.1308 H   0  0  0  0  0  0  0  0  0  0  0  0
   -2.1383    1.6466   -0.4885 H   0  0  0  0  0  0  0  0  0  0  0  0
    5.9398   -1.3914    1.2926 H   0  0  0  0  0  0  0  0  0  0  0  0
    5.9583    1.0720    1.5773 H   0  0  0  0  0  0  0  0  0  0  0  0
   -5.1617   -1.9926    0.9939 H   0  0  0  0  0  0  0  0  0  0  0  0
   -4.3464    2.1813    0.3852 H   0  0  0  0  0  0  0  0  0  0  0  0
  1  5  2  0  0  0  0
  1  6  1  0  0  0  0
  1  7  1  0  0  0  0
  1  8  1  0  0  0  0
  2 20  1  0  0  0  0
  3  7  1  0  0  0  0
  3  9  1  0  0  0  0
  4  8  1  0  0  0  0
  4 10  1  0  0  0  0
  6 11  1  0  0  0  0
  6 25  1  0  0  0  0
  7 21  1  0  0  0  0
  7 22  1  0  0  0  0
  8 23  1  0  0  0  0
  8 24  1  0  0  0  0
  9 10  1  0  0  0  0
  9 12  2  0  0  0  0
 10 13  2  0  0  0  0
 11 14  2  0  0  0  0
 11 15  1  0  0  0  0
 12 16  1  0  0  0  0
 12 26  1  0  0  0  0
 13 17  1  0  0  0  0
 13 27  1  0  0  0  0
 14 18  1  0  0  0  0
 14 28  1  0  0  0  0
 15 19  2  0  0  0  0
 15 29  1  0  0  0  0
 16 17  2  0  0  0  0
 16 30  1  0  0  0  0
 17 31  1  0  0  0  0
 18 20  2  0  0  0  0
 18 32  1  0  0  0  0
 19 20  1  0  0  0  0
 19 33  1  0  0  0  0
M  END
> <PUBCHEM_COMPOUND_CID>
666967

> <PUBCHEM_CONFORMER_RMSD>
0.6

> <PUBCHEM_MMFF94_PARTIAL_CHARGES>
29
1 0.98
10 0.08
11 0.1
12 -0.15
13 -0.15
14 -0.15
15 -0.15
16 -0.15
17 -0.15
18 -0.15
19 -0.15
2 -0.19
20 0.19
25 0.4
26 0.15
27 0.15
28 0.15
29 0.15
3 -0.36
30 0.15
31 0.15
32 0.15
33 0.15
4 -0.36
5 -0.7
6 -0.78
7 0.28
8 0.28
9 0.08

> <PUBCHEM_EFFECTIVE_ROTOR_COUNT>
2.8

> <PUBCHEM_PHARMACOPHORE_FEATURES>
6
1 3 acceptor
1 4 acceptor
1 5 acceptor
6 11 14 15 18 19 20 rings
6 9 10 12 13 16 17 rings
7 1 3 4 7 8 9 10 rings

> <PUBCHEM_HEAVY_ATOM_COUNT>
20

> <PUBCHEM_ATOM_DEF_STEREO_COUNT>
0

> <PUBCHEM_ATOM_UDEF_STEREO_COUNT>
0

> <PUBCHEM_BOND_DEF_STEREO_COUNT>
0

> <PUBCHEM_BOND_UDEF_STEREO_COUNT>
0

> <PUBCHEM_ISOTOPIC_ATOM_COUNT>
0

> <PUBCHEM_COMPONENT_COUNT>
1

> <PUBCHEM_CACTVS_TAUTO_COUNT>
2

> <PUBCHEM_CONFORMER_ID>
000A2D5700000001

> <PUBCHEM_MMFF94_ENERGY>
71.4891

> <PUBCHEM_FEATURE_SELFOVERLAP>
-6.003

> <PUBCHEM_SHAPE_MULTIPOLES>
385.58
12.07
1.58
1.4
4.36
-0.08
6.5
-11.64
-2.95
-0.28
13.93
0.9
4.57
-0.17

> <PUBCHEM_SHAPE_SELFOVERLAP>
822.935

> <PUBCHEM_SHAPE_VOLUME>
215.5

> <PUBCHEM_COORDINATE_TYPE>
2
5
255

$$$$
